168

H 3.4398866 5.5797305 42.451378 0.7873417972896712
H 4.468875 5.4111257 47.975418 0.8207359940491015
H 1.9266098 1.7891537 42.994278 0.820488290191083
H 4.362726 2.847587 40.546936 0.7228488334571973
H 5.0806704 0.90591437 46.067017 0.8249746383966226
H 1.0053191 4.5223823 44.898724 0.8254945822324855
H 2.2269418 6.0027947 41.222622 0.7359196689004697
H -0.91947496 4.9860587 46.742706 0.8228910360053991
H 3.1407359 1.3669506 44.218967 0.8231785118141834
H 4.791986 4.0175076 41.834007 0.7806994553909016
H 3.1144688 6.975316 47.364147 0.8140217583243351
H 0.5746531 3.351666 43.613686 0.8137289027396261
H 0.93879396 1.9771717 48.49628 0.8207291690802418
H 0.32608116 6.482014 50.402645 0.8251146381959236
H -0.26871297 2.4023836 49.728992 0.822964657429904
H 2.2930682 0.4129812 49.107662 0.8139843109432898
H 3.480754 5.597762 53.475494 0.8206622640843763
H 4.5097475 5.4291644 58.99953 0.8207410150392977
H 1.9674758 1.8071924 54.018394 0.8204028017024794
H 4.403594 2.8656187 51.571053 0.8254560102541564
H 5.1215367 0.92395306 57.091133 0.8249307117674196
H 1.046185 4.540421 55.922726 0.8253513794916801
H 2.2678094 6.020826 52.24674 0.8235086258395541
H -0.87860906 5.004097 57.76682 0.8228432823284244
H 3.1816018 1.3849894 55.243084 0.8233001823862628
H 4.832852 4.0355463 52.858124 0.8142420085416027
H 3.155343 6.9933476 58.388264 0.8140142660341204
H 0.615519 3.3697047 54.637802 0.81414675545317
H 0.9796599 1.9952103 59.520393 0.8206709734320625
H 0.36694705 6.500053 61.426758 0.8250233146654707
H -0.22784552 2.4204152 60.75311 0.8228947082828565
H 2.333934 0.43101993 60.131664 0.8139469771274751
H 3.5216331 5.615801 64.50153 0.8206030362991009
H 4.55062 5.447203 70.02568 0.8209262962105528
H 2.0083482 1.8252312 65.04455 0.8204003123124242
H 4.4444647 2.8836646 62.597202 0.8253598004037807
H 5.162409 0.9419918 68.11729 0.8250723185649841
H 1.0870641 4.5584598 66.948875 0.825391325307799
H 2.3086884 6.0388646 63.27289 0.8234358787668248
H -0.83772993 5.0221357 68.79297 0.8227058573443521
H 3.222481 1.403028 66.26912 0.8233498787321826
H 4.873731 4.053585 63.88416 0.8141938196987444
H 3.196214 7.0113935 69.4143 0.8135934234395047
H 0.6563915 3.3877435 65.66384 0.8141607360365607
H 1.0205324 2.0132492 70.54643 0.7881355318215278
H 0.40782616 6.5180917 72.45291 0.7233214678269878
H -0.18696795 2.438461 71.779144 0.7364882307150623
H 2.3748064 0.44905865 71.157814 0.7811367920790121
C 2.5119095 5.2525887 41.96668 0.847676217857295
C -1.2011416 5.7379785 47.486763 0.8700895441738018
C 2.8550498 2.1165051 43.47491 0.8696931613864507
C 4.0530686 3.2794316 41.504242 0.8457568576468114
C 5.396676 0.47850358 47.024326 0.8689451112782933
C 1.3139881 4.0898867 43.94153 0.8690578340354557
C 0.012903134 1.6503915 48.984936 0.8701321824502235
C 0.010590333 6.909794 49.44545 0.8689102595097024
C 2.5527754 5.2706275 52.990795 0.8702921317313658
C -1.1602741 5.7560096 58.51088 0.8700830995651784
C 2.8959224 2.134544 54.499027 0.8701159434549562
C 4.093941 3.2974703 52.528248 0.8691133000086201
C 5.4375486 0.4965423 58.04833 0.8689270430554585
C 1.3548622 4.1079183 54.96553 0.869083225347476
C 0.05376905 1.6684302 60.00905 0.8701044571201232
C 0.05145779 6.9278255 60.469566 0.8688834148093519
C 2.593648 5.2886662 64.016945 0.8702603527642019
C -1.1194016 5.7740483 69.537025 0.8696538607988673
C 2.936795 2.1525826 65.52506 0.8701187962332702
C 4.1348133 3.315509 63.554398 0.8690809781028581
C 5.478421 0.514581 69.07448 0.8688981923568342
C 1.3957347 4.125957 65.991684 0.869102111336314
C 0.09464815 1.686469 71.03509 0.8479874417598416
C 0.0923303 6.945864 71.495605 0.8458823887580253
N 2.7936316 3.9597244 41.35134 0.8762545091799776
N -1.486505 7.028745 46.867466 0.8898441627947759
N 2.5737174 3.4097385 44.09228 0.8899416523822153
N 1.427732 5.183515 42.940033 0.8954298974065643
N 3.9386826 2.1850727 42.50359 0.8906391172044863
N 5.5194154 1.5777881 48.01768 0.8952463035922688
N 1.8679186 3.422736 40.454494 0.8900697630381889
N 0.9809572 0.33240727 45.966553 0.88651450352846
N 3.4994173 3.94651 44.989243 0.8870913899451945
N 0.24821025 5.839998 42.648468 0.893755950294719
N 1.0646135 5.149962 48.158493 0.8928626849428097
N 5.118305 1.5287349 42.79527 0.8866640640233595
N 0.29801816 0.35955215 49.60434 0.8897836239978282
N -0.111764446 5.810871 48.45209 0.8951649837060172
N 4.426127 7.0558176 50.503223 0.886476674071502
N 4.3429213 2.2386246 48.311283 0.89296896763824
N 2.8345058 3.977756 52.375458 0.8899789226261272
N -1.4456391 7.046784 57.89147 0.8898270035340555
N 2.6145847 3.4277701 55.116398 0.889953071315929
N 1.4686044 5.201554 53.96415 0.8952348493898123
N 3.9795485 2.2031114 53.527706 0.8951531622338645
N 5.5602894 1.5958196 59.041798 0.8952453089458985
N 1.9087845 3.4407747 51.47861 0.8869438980977068
N 1.0218247 0.35043877 56.990555 0.8864799235435512
N 3.5402849 3.9645414 56.013245 0.8869758512395249
N 0.28907618 5.8580365 53.67247 0.8930852595350409
N 1.1054809 5.1679935 59.182495 0.8928484845261334
N 5.159178 1.5467737 53.81927 0.8929365427769874
N 0.33888564 0.37758365 60.628456 0.8897704202622573
N -0.07089853 5.8289094 59.476097 0.895157243912594
N 4.466993 7.0738564 61.52734 0.8864709934300599
N 4.383787 2.2566633 59.3354 0.8929715595517103
N 2.8753767 3.995802 63.401493 0.8899655238951035
N -1.40476 7.0648227 68.91762 0.8898054428020632
N 2.6554623 3.445816 66.14243 0.8899761557254331
N 1.5094769 5.2195926 64.99019 0.8952361662025828
N 4.0204277 2.2211502 64.553856 0.8951385725045277
N 5.601162 1.6138583 70.06783 0.8954687048928889
N 1.949657 3.4588134 62.504646 0.8869383788785873
N 1.0626972 0.3684775 68.01671 0.8865997094197432
N 3.5811572 3.9825802 67.0394 0.8870062688345429
N 0.32995528 5.876075 64.69862 0.893091778826491
N 1.14636 5.1860323 70.20865 0.8865817152393625
N 5.2000504 1.5648124 64.84542 0.8929145398292205
N 0.37976474 0.39562237 71.654495 0.8762103232103822
N -0.030026028 5.846948 70.50224 0.8907096957238323
N 4.507872 7.091895 72.553375 0.8899880328136801
N 4.424666 2.274702 70.361435 0.8936454563757542
O 0.85583967 4.0964036 40.23322 0.9449170600161166
O 0.44893858 6.892963 45.745277 0.9195717511560737
O 4.5114408 3.272763 45.20837 0.9199938899502441
O 2.1268399 2.3103745 39.99997 0.94526909984747
O 0.7183062 1.4430547 45.50999 0.9165722714917934
O 3.2407005 5.0588717 45.44569 0.9175760404459781
O 0.2842637 6.7720733 41.839996 0.937382259050757
O 1.022426 4.2138724 47.35612 0.9256308441496149
O 5.0819926 0.59629774 43.601593 0.9252752508209079
O -0.75556374 5.4546456 43.273865 0.9285657245533486
O 6.1222425 1.9143109 42.17179 0.9271918873184328
O 3.3353689 1.8528968 47.69391 0.9278268906867314
O 4.95813 0.49533442 50.724495 0.9195431316916934
O 4.6884146 5.945019 50.95978 0.916650797089787
O 4.385238 3.1747868 49.11569 0.9258755584476991
O 2.072132 5.535538 48.775867 0.9278284352803594
O 0.8967071 4.114435 51.257336 0.919944111756092
O 0.48980603 6.9109945 56.769394 0.9195303529966321
O 4.5523067 3.2908015 56.232487 0.9199124412321099
O 2.1677058 2.3284132 51.024086 0.9173203708019755
O 0.7591721 1.4610933 56.534107 0.9165911861973067
O 3.2815664 5.0769105 56.469807 0.9174746060588936
O 0.3251296 6.790112 52.864113 0.9261744551076139
O 1.0632919 4.231911 58.380127 0.9256268165984298
O 5.1228666 0.6143293 54.62571 0.9260033890332944
O -0.7146962 5.472677 54.297867 0.9285246305678581
O 6.1631083 1.9323497 53.195908 0.9283254339104109
O 3.376235 1.8709356 58.718025 0.9278174231666005
O 4.9989963 0.51337314 61.748497 0.919555794732871
O 4.7292805 5.963057 61.983784 0.916663229670478
O 4.426104 3.1928256 60.1398 0.925904570203275
O 2.112998 5.553577 59.79987 0.9278308059731576
O 0.9375781 4.132481 62.28349 0.9199510293834511
O 0.5306786 6.9290333 67.79543 0.9196236162038219
O 4.593179 3.3088403 67.25852 0.9199448696491257
O 2.2085848 2.346452 62.05012 0.9173338853607591
O 0.8000512 1.479132 67.56026 0.9167056064397059
O 3.322439 5.0949492 67.49584 0.9174393951704165
O 0.36600873 6.808151 63.89015 0.9262048369168906
O 1.1041644 4.24995 69.40627 0.9249031160213294
O 5.163738 0.63237524 65.65175 0.9259828428878304
O -0.6738238 5.490716 65.32402 0.9285329470564786
O -0.3917725 1.9503883 64.22206 0.9283289912205298
O 3.417114 1.8889742 69.744064 0.9278274714979943
O 5.039875 0.5314119 72.77465 0.9449895220462009
O 4.770153 5.981096 73.00993 0.9452517064353518
O 4.4669766 3.2108643 71.16584 0.9372924230960219
O 2.1538706 5.5716157 70.82602 0.9266697879828256
lattice_vector 6.59576 0.0 0.0 
lattice_vector -1.545044 7.232849 0.0 
lattice_vector 0.0 0.0 113.009904 
