224

H 3.4398866 5.5797305 42.451374 0.7873395641751364
H 4.468875 5.4111257 47.975475 0.8207412823698406
H 1.9266098 1.7891537 42.994274 0.8204813838170582
H 4.362726 2.847587 40.54696 0.7228486555718361
H 5.0806704 0.90591437 46.06709 0.8249691279704324
H 1.0053191 4.5223823 44.89869 0.8254916757665832
H 2.2269418 6.0027947 41.222694 0.7359264607042619
H -0.91947496 4.9860587 46.742702 0.822895585649638
H 3.1407359 1.3669506 44.218983 0.8231786283944201
H 4.791986 4.0175076 41.833935 0.7806887058890722
H 3.1144688 6.975316 47.364113 0.8140206558370963
H 0.5746531 3.351666 43.613697 0.8137212737691337
H 0.93879396 1.9771717 48.496296 0.8207292293803643
H 0.32608116 6.482014 50.4027 0.8251088915942538
H -0.26871297 2.4023836 49.72907 0.8229662483481346
H 2.2930682 0.4129812 49.10766 0.8139850878098674
H 3.480754 5.597762 53.47539 0.8206520663286674
H 4.5097475 5.4291644 58.999493 0.8207350262321362
H 1.9674758 1.8071924 54.018414 0.8204059001237715
H 4.403594 2.8656187 51.5711 0.8254522033064254
H 5.1215367 0.92395306 57.091106 0.8249328785518197
H 1.046185 4.540421 55.922832 0.8253607139506358
H 2.2678094 6.020826 52.24671 0.8235006903434393
H -0.87860906 5.004097 57.766846 0.8228419295956775
H 3.1816018 1.3849894 55.243126 0.8233004547418159
H 4.832852 4.0355463 52.858074 0.8142364418352982
H 3.155343 6.9933476 58.388256 0.8140096178996813
H 0.615519 3.3697047 54.637714 0.8141572346094501
H 0.9796599 1.9952103 59.520435 0.8206661614822907
H 0.36694705 6.500053 61.426716 0.8250198222833786
H -0.22784552 2.4204152 60.753086 0.822893171634736
H 2.333934 0.43101993 60.131676 0.8139387230457134
H 3.5216331 5.615801 64.50152 0.8205988685556372
H 4.55062 5.447203 70.02562 0.820732932812885
H 2.0083482 1.8252312 65.04454 0.8204048710016816
H 4.4444647 2.8836646 62.5971 0.8253642405027972
H 5.162409 0.9419918 68.11723 0.8249224546706517
H 1.0870641 4.5584598 66.94883 0.8253449434586103
H 2.3086884 6.0388646 63.272835 0.8234381309763986
H -0.83772993 5.0221357 68.79297 0.8228337358140382
H 3.222481 1.403028 66.26913 0.8232914509285316
H 4.873731 4.053585 63.8842 0.8141960427632589
H 3.196214 7.0113935 69.41425 0.8140060601924566
H 0.6563915 3.3877435 65.66384 0.8141490498728293
H 1.0205324 2.0132492 70.54644 0.820725585242964
H 0.40782616 6.5180917 72.45284 0.8251127759271418
H -0.18696795 2.438461 71.77921 0.8229649217454407
H 2.3748064 0.44905865 71.1578 0.8139866254629898
H 3.562499 5.6338396 75.52566 0.820657609919925
H 4.591486 5.465242 81.04976 0.8209285082200448
H 2.0492208 1.8432698 76.06856 0.8204032760634427
H 4.485332 2.901696 73.62124 0.8254499028567539
H 5.2032747 0.9600305 79.14137 0.8250729346312351
H 1.12793 4.5764985 77.97297 0.8253949664301933
H 2.3495543 6.0569034 74.296974 0.823499649161325
H -0.79686403 5.0401745 79.816986 0.8227117124862424
H 3.263347 1.4210668 77.29327 0.8233499410423091
H 4.9145985 4.0716166 74.90822 0.8142356639637187
H 3.2370813 7.029425 80.43839 0.8135956706240682
H 0.697264 3.4057822 76.68798 0.8141591099432585
H 1.0614065 2.0312805 81.57058 0.7881290023232682
H 0.44869208 6.5361304 83.47698 0.723315256914375
H -0.1461005 2.4564924 82.80323 0.7364777374887534
H 2.4156725 0.4670974 82.18194 0.7811306022714423
C 2.5119095 5.2525887 41.966774 0.8476787855995611
C -1.2011416 5.7379785 47.486782 0.8700941034073235
C 2.8550498 2.1165051 43.474903 0.8696918485012807
C 4.0530686 3.2794316 41.504253 0.8457547151751046
C 5.396676 0.47850358 47.02426 0.8689406331766156
C 1.3139881 4.0898867 43.94152 0.869053836277278
C 0.012903134 1.6503915 48.98499 0.8701357294162352
C 0.010590333 6.909794 49.445526 0.8689108037915428
C 2.5527754 5.2706275 52.99079 0.8702878274452611
C -1.1602741 5.7560096 58.510925 0.8700801489988141
C 2.8959224 2.134544 54.499046 0.8701180238688617
C 4.093941 3.2974703 52.528267 0.8691110334213111
C 5.4375486 0.4965423 58.0484 0.8689286579015312
C 1.3548622 4.1079183 54.965538 0.8690918916791107
C 0.05376905 1.6684302 60.009007 0.8701010775221205
C 0.05145779 6.9278255 60.469543 0.8688789004401282
C 2.593648 5.2886662 64.016914 0.8702605921300064
C -1.1194016 5.7740483 69.53693 0.8700794591094921
C 2.936795 2.1525826 65.52517 0.8701119024443715
C 4.1348133 3.315509 63.554394 0.8690869120107024
C 5.478421 0.514581 69.0744 0.868922427943051
C 1.3957347 4.125957 65.99166 0.8690826447980894
C 0.09464815 1.686469 71.03513 0.8701344530672599
C 0.0923303 6.945864 71.49567 0.8689121725555987
C 2.634522 5.306698 75.04093 0.8702871085419022
C -1.0785291 5.792087 80.561066 0.8696575101199537
C 2.977661 2.1706214 76.54919 0.8701228573924915
C 4.175679 3.3335478 74.57841 0.8691102347293507
C 5.5192885 0.53261256 80.09854 0.8688985840463326
C 1.4366006 4.143996 77.01568 0.8691038562082557
C 0.13551407 1.7045077 82.05927 0.8479799077815917
C 0.13319622 6.963903 82.519684 0.8458780928000238
N 2.7936316 3.9597244 41.35132 0.876257025130002
N -1.486505 7.028745 46.86748 0.8898467499605309
N 2.5737174 3.4097385 44.092346 0.8899388970116873
N 1.427732 5.183515 42.94007 0.8954268907462439
N 3.9386826 2.1850727 42.503593 0.8906365225780358
N 5.5194154 1.5777881 48.01765 0.8952482020001723
N 1.8679186 3.422736 40.45443 0.8900666821100353
N 0.9809572 0.33240727 45.9665 0.8865105764896026
N 3.4994173 3.94651 44.989235 0.8870908816005273
N 0.24821025 5.839998 42.648464 0.8937512256396792
N 1.0646135 5.149962 48.15843 0.8928664993929882
N 5.118305 1.5287349 42.795197 0.8866647097126501
N 0.29801816 0.35955215 49.60429 0.8897865139999993
N -0.111764446 5.810871 48.452015 0.8951671466294915
N 4.426127 7.0558176 50.50329 0.8864694277013548
N 4.3429213 2.2386246 48.311237 0.8929727305417944
N 2.8345058 3.977756 52.375458 0.8899791552641804
N -1.4456391 7.046784 57.8915 0.8898247395520683
N 2.6145847 3.4277701 55.116364 0.8899558870502668
N 1.4686044 5.201554 53.964085 0.8952343681749472
N 3.9795485 2.2031114 53.527733 0.8951531968243622
N 5.5602894 1.5958196 59.04179 0.8952425098285643
N 1.9087845 3.4407747 51.47857 0.8869422435188998
N 1.0218247 0.35043877 56.99064 0.8864856394537362
N 3.5402849 3.9645414 56.013252 0.8869750034332086
N 0.28907618 5.8580365 53.67248 0.8930866930059607
N 1.1054809 5.1679935 59.182568 0.8928459126208921
N 5.159178 1.5467737 53.81934 0.8929334421797271
N 0.33888564 0.37758365 60.628433 0.8897679155032763
N -0.07089853 5.8289094 59.47616 0.8951545858702309
N 4.466993 7.0738564 61.527306 0.8864710307335378
N 4.383787 2.2566633 59.335377 0.8929647397977016
N 2.8753767 3.995802 63.401585 0.8899656276665967
N -1.40476 7.0648227 68.917625 0.889824792794305
N 2.6554623 3.445816 66.14249 0.8899530163780798
N 1.5094769 5.2195926 64.99021 0.8952330757789986
N 4.0204277 2.2211502 64.553856 0.895144346065542
N 5.601162 1.6138583 70.06792 0.8952441857720905
N 1.949657 3.4588134 62.504696 0.8869376714689969
N 1.0626972 0.3684775 68.01664 0.8864758476299047
N 3.5811572 3.9825802 67.039375 0.8869716532417689
N 0.32995528 5.876075 64.69861 0.8930890577073382
N 1.14636 5.1860323 70.208694 0.892861006625426
N 5.2000504 1.5648124 64.84547 0.8929193974202906
N 0.37976474 0.39562237 71.65456 0.8897852806113703
N -0.030026028 5.846948 70.50228 0.8951667902117161
N 4.507872 7.091895 72.55343 0.8864744233152932
N 4.424666 2.274702 70.3615 0.8929691361821356
N 2.916244 4.0138335 74.4256 0.8899784471763449
N -1.3638941 7.0828614 79.94164 0.8898050070296166
N 2.6963298 3.4638476 77.166504 0.8899740382443774
N 1.5503429 5.2376313 76.01423 0.8952350142033603
N 4.0612936 2.239189 75.57787 0.8951511749758589
N 5.642028 1.6318971 81.091934 0.8954702417961791
N 1.9905311 3.476845 73.52871 0.8869371465073259
N 1.1035697 0.3865162 79.04078 0.8865979598866287
N 3.6220298 4.000619 78.06339 0.8870099886695365
N 0.37082118 5.8941135 75.72275 0.8930876534009557
N 1.1872259 5.204071 81.23271 0.8865808392858764
N 5.2409163 1.5828512 75.86948 0.8929328226028712
N 0.42063063 0.4136611 82.67857 0.8762063079996678
N 0.01084143 5.8649797 81.5263 0.8907098754587714
N 4.5487394 7.1099267 83.577446 0.8899855328024144
N 4.465532 2.2927408 81.38552 0.8936438082402753
O 0.85583967 4.0964036 40.233276 0.9449114455072434
O 0.44893858 6.892963 45.745346 0.9195669822338384
O 4.5114408 3.272763 45.208405 0.9199948850820138
O 2.1268399 2.3103745 39.99997 0.9452612874911637
O 0.7183062 1.4430547 45.510056 0.9165615546555327
O 3.2407005 5.0588717 45.44568 0.9175759968109962
O 0.2842637 6.7720733 41.84001 0.9373770169219713
O 1.022426 4.2138724 47.356052 0.9256312093278123
O 5.0819926 0.59629774 43.601665 0.925293525829115
O -0.75556374 5.4546456 43.273846 0.9285605654581207
O 6.1222425 1.9143109 42.171803 0.9271797678081451
O 3.3353689 1.8528968 47.69392 0.9278219590865057
O 4.95813 0.49533442 50.72444 0.9195339653800292
O 4.6884146 5.945019 50.959736 0.9166331812663537
O 4.385238 3.1747868 49.115723 0.9258886824098496
O 2.072132 5.535538 48.775867 0.9278360070088051
O 0.8967071 4.114435 51.257294 0.9199418160476802
O 0.48980603 6.9109945 56.769363 0.9195379353160926
O 4.5523067 3.2908015 56.232418 0.9199099858111918
O 2.1677058 2.3284132 51.02411 0.9173137798015191
O 0.7591721 1.4610933 56.53407 0.9166042847410211
O 3.2815664 5.0769105 56.469822 0.9174730288449395
O 0.3251296 6.790112 52.86415 0.9261687279103412
O 1.0632919 4.231911 58.38019 0.9256291326415905
O 5.1228666 0.6143293 54.625683 0.9259907653906927
O -0.7146962 5.472677 54.297985 0.9285361976508031
O 6.1631083 1.9323497 53.195942 0.9283289950332952
O 3.376235 1.8709356 58.71806 0.9278111914133731
O 4.9989963 0.51337314 61.748585 0.9195587004837471
O 4.7292805 5.963057 61.983753 0.916661096216416
O 4.426104 3.1928256 60.13974 0.9258960529090101
O 2.112998 5.553577 59.799885 0.9278226038674992
O 0.9375781 4.132481 62.283417 0.9199550264325129
O 0.5306786 6.9290333 67.79549 0.9195241127705926
O 4.593179 3.3088403 67.258545 0.9199088555380707
O 2.2085848 2.346452 62.050232 0.9173293125841216
O 0.8000512 1.479132 67.560196 0.9165835623610673
O 3.322439 5.0949492 67.49582 0.9174634016123022
O 0.36600873 6.808151 63.890152 0.9262074613704081
O 1.1041644 4.24995 69.40632 0.9256311089249901
O 5.163738 0.63237524 65.65181 0.9259850479371537
O -0.6738238 5.490716 65.32399 0.928522607260352
O -0.3917725 1.9503883 64.22207 0.9283337173550645
O 3.417114 1.8889742 69.744064 0.9278245759144926
O 5.039875 0.5314119 72.77458 0.9195423496511457
O 4.770153 5.981096 73.00988 0.916644768260407
O 4.4669766 3.2108643 71.16586 0.9258744815532935
O 2.1538706 5.5716157 70.82601 0.9278227233341483
O 0.97844553 4.1505127 73.307556 0.9199347950520147
O 0.571551 6.947072 78.819626 0.919620927356933
O 4.634045 3.326879 78.282684 0.9199495830744424
O 2.2494524 2.3644834 73.07425 0.9173054844949285
O 0.8409171 1.4971708 78.584335 0.9167061330249718
O 3.3633065 5.1129804 78.51996 0.9174509508150653
O 0.40687463 6.8261895 74.91429 0.9261812913959777
O 1.1450318 4.267981 80.430336 0.9249078896036114
O 5.204605 0.6504067 76.67583 0.9259900841766078
O -0.63295126 5.5087547 76.34813 0.9285315630226381
O -0.3509066 1.9684271 75.246086 0.9283306633299785
O 3.45798 1.9070129 80.7682 0.9278255367313737
O 5.0807424 0.54944336 83.79872 0.9449872589581151
O 4.8110256 5.9991345 84.03402 0.9452502050530651
O 4.507844 3.2288957 82.18988 0.9372875092887015
O 2.1947365 5.589654 81.85003 0.9266634206646063
lattice_vector 6.59576 0.0 0.0 
lattice_vector -1.545044 7.232849 0.0 
lattice_vector 0.0 0.0 124.033985 
