280

H 3.4398866 5.5797305 42.45141 0.7873462072386267
H 4.468875 5.4111257 47.975502 0.820734900606881
H 1.9266098 1.7891537 42.99435 0.820479191907607
H 4.362726 2.847587 40.546925 0.722846761142989
H 5.0806704 0.90591437 46.0671 0.8249644064708443
H 1.0053191 4.5223823 44.898697 0.8254895361172383
H 2.2269418 6.0027947 41.222633 0.7359196035753369
H -0.91947496 4.9860587 46.742805 0.8228910159053582
H 3.1407359 1.3669506 44.21894 0.8231731863083688
H 4.791986 4.0175076 41.83405 0.7807048180817917
H 3.1144688 6.975316 47.364082 0.8140155866068021
H 0.5746531 3.351666 43.613735 0.8137228063972459
H 0.93879396 1.9771717 48.496292 0.8207282525183806
H 0.32608116 6.482014 50.402664 0.8251107297429867
H -0.26871297 2.4023836 49.728985 0.8229616987038956
H 2.2930682 0.4129812 49.107574 0.8139855280007613
H 3.480754 5.597762 53.475418 0.820654168792937
H 4.5097475 5.4291644 58.999508 0.8207339790200096
H 1.9674758 1.8071924 54.01836 0.8204054870679327
H 4.403594 2.8656187 51.57107 0.8254508998187784
H 5.1215367 0.92395306 57.09111 0.8249364855041444
H 1.046185 4.540421 55.92284 0.8253584004359377
H 2.2678094 6.020826 52.246777 0.8235036118843722
H -0.87860906 5.004097 57.766815 0.8228412190592345
H 3.1816018 1.3849894 55.243084 0.8233021180201936
H 4.832852 4.0355463 52.85806 0.8142355162284186
H 3.155343 6.9933476 58.38823 0.8140079606513159
H 0.615519 3.3697047 54.637745 0.8141533522865664
H 0.9796599 1.9952103 59.520435 0.8206697151695073
H 0.36694705 6.500053 61.426807 0.8250269819179178
H -0.22784552 2.4204152 60.753128 0.8228930198794276
H 2.333934 0.43101993 60.131718 0.8139431822397687
H 3.5216331 5.615801 64.50159 0.8206042845116356
H 4.55062 5.447203 70.02568 0.8207335076740523
H 2.0083482 1.8252312 65.044525 0.8204028207975181
H 4.4444647 2.8836646 62.597103 0.8253702473999955
H 5.162409 0.9419918 68.11728 0.8249218134793496
H 1.0870641 4.5584598 66.948875 0.8253480338398861
H 2.3086884 6.0388646 63.27281 0.8234394264240292
H -0.83772993 5.0221357 68.792984 0.822839978886716
H 3.222481 1.403028 66.26912 0.8232949503456379
H 4.873731 4.053585 63.884228 0.8141993492199735
H 3.196214 7.0113935 69.41426 0.8140034431671421
H 0.6563915 3.3877435 65.66392 0.8141473755394292
H 1.0205324 2.0132492 70.54647 0.8207234988587272
H 0.40782616 6.5180917 72.45284 0.8251104815074826
H -0.18696795 2.438461 71.77917 0.8229621981899098
H 2.3748064 0.44905865 71.15775 0.8139850556498021
H 3.562499 5.6338396 75.5256 0.8206552592201513
H 4.591486 5.465242 81.04969 0.8207349689470198
H 2.0492208 1.8432698 76.068535 0.8204034760588489
H 4.485332 2.901696 73.62125 0.825447615472109
H 5.2032747 0.9600305 79.14129 0.8249325418761361
H 1.12793 4.5764985 77.97302 0.8253605843053726
H 2.3495543 6.0569034 74.29695 0.8235010461141617
H -0.79686403 5.0401745 79.81699 0.8228384090735282
H 3.263347 1.4210668 77.29326 0.8233023883657425
H 4.9145985 4.0716166 74.90823 0.8142358468740901
H 3.2370813 7.029425 80.43841 0.8140070993645667
H 0.697264 3.4057822 76.68792 0.8141542497533888
H 1.0614065 2.0312805 81.57062 0.8206679795309828
H 0.44869208 6.5361304 83.47699 0.8250279577748996
H -0.1461005 2.4564924 82.80331 0.8228933254000482
H 2.4156725 0.4670974 82.1819 0.8139430154094299
H 3.6033716 5.6518784 86.551765 0.8206083175848257
H 4.6323647 5.4832807 92.07586 0.8209255283889936
H 2.0900931 1.8613086 87.0947 0.8204012590243467
H 4.5262113 2.9197347 84.647285 0.8253687047218629
H 5.244154 0.97806925 90.16746 0.8250709537722125
H 1.1688025 4.5945373 88.999054 0.8253885846672336
H 2.3904269 6.074942 85.32299 0.8234385470472435
H -0.7559915 5.058213 90.84303 0.8227117687663567
H 3.3042195 1.4391055 88.3193 0.823347997368362
H 4.955471 4.0896554 85.9344 0.8141992024896755
H 3.2779605 7.047464 91.46444 0.8135902898431414
H 0.73813653 3.423821 87.714096 0.814158973262981
H 1.102279 2.0493193 92.59665 0.7881361408527646
H 0.4895646 6.554169 94.50302 0.7233106138049462
H -0.10522799 2.4745312 93.829346 0.736486284026109
H 2.4565516 0.48513612 93.20793 0.7811412211230062
C 2.5119095 5.2525887 41.96668 0.8476788887605812
C -1.2011416 5.7379785 47.486855 0.8700895441738018
C 2.8550498 2.1165051 43.474895 0.8696881457191448
C 4.0530686 3.2794316 41.50423 0.8457585407296004
C 5.396676 0.47850358 47.024273 0.8689385718367529
C 1.3139881 4.0898867 43.941525 0.8690536321044257
C 0.012903134 1.6503915 48.98494 0.8701325088581386
C 0.010590333 6.909794 49.445496 0.8689106141257089
C 2.5527754 5.2706275 52.99082 0.8702880568710714
C -1.1602741 5.7560096 58.51086 0.8700797027736724
C 2.8959224 2.134544 54.49904 0.8701192467567876
C 4.093941 3.2974703 52.52824 0.869110954975952
C 5.4375486 0.4965423 58.048416 0.868929234689839
C 1.3548622 4.1079183 54.965534 0.869091886843438
C 0.05376905 1.6684302 60.009083 0.8701026230568828
C 0.05145779 6.9278255 60.4695 0.8688848010355597
C 2.593648 5.2886662 64.01685 0.870265472129825
C -1.1194016 5.7740483 69.53703 0.8700811704003726
C 2.936795 2.1525826 65.52507 0.8701118051936181
C 4.1348133 3.315509 63.55441 0.8690898357122178
C 5.478421 0.514581 69.07445 0.8689217673364145
C 1.3957347 4.125957 65.99171 0.8690832497944886
C 0.09464815 1.686469 71.03512 0.8701324661430287
C 0.0923303 6.945864 71.495674 0.8689112462556056
C 2.634522 5.306698 75.041 0.8702880060965068
C -1.0785291 5.792087 80.56104 0.8700797385039216
C 2.977661 2.1706214 76.54922 0.87011940821453
C 4.175679 3.3335478 74.57842 0.8691093452342006
C 5.5192885 0.53261256 80.098595 0.8689274084174049
C 1.4366006 4.143996 77.01572 0.8690934562879158
C 0.13551407 1.7045077 82.059265 0.8701022673662824
C 0.13319622 6.963903 82.519684 0.8688860728175107
C 2.6753945 5.3247366 86.06703 0.8702659387722519
C -1.0376567 5.810126 91.58721 0.8696579010035065
C 3.01854 2.1886601 87.57525 0.8701186675506435
C 4.2165585 3.3515866 85.60459 0.869088699597754
C 5.560168 0.55065125 91.124626 0.868897137642863
C 1.4774797 4.1620345 88.041885 0.8691005351756238
C 0.17638658 1.7225463 93.0853 0.8479889214757239
C 0.17407532 6.9819417 93.54585 0.8458743421984567
N 2.7936316 3.9597244 41.351345 0.8762586641091729
N -1.486505 7.028745 46.867466 0.8898453395499429
N 2.5737174 3.4097385 44.092255 0.8899382499659066
N 1.427732 5.183515 42.940056 0.8954299676049273
N 3.9386826 2.1850727 42.503677 0.8906373279940364
N 5.5194154 1.5777881 48.01764 0.8952456260254608
N 1.8679186 3.422736 40.45441 0.8900638585758793
N 0.9809572 0.33240727 45.96648 0.8865110865298826
N 3.4994173 3.94651 44.98919 0.8870930862360723
N 0.24821025 5.839998 42.64846 0.8937532827569252
N 1.0646135 5.149962 48.15851 0.8928615872031914
N 5.118305 1.5287349 42.795273 0.8866616850788359
N 0.29801816 0.35955215 49.604324 0.8897855281708147
N -0.111764446 5.810871 48.45213 0.8951637757515777
N 4.426127 7.0558176 50.503284 0.8864720219886829
N 4.3429213 2.2386246 48.31126 0.8929686139334447
N 2.8345058 3.977756 52.37549 0.8899802886116641
N -1.4456391 7.046784 57.891476 0.8898238941196097
N 2.6145847 3.4277701 55.116398 0.8899585559445509
N 1.4686044 5.201554 53.964066 0.8952332850175974
N 3.9795485 2.2031114 53.527687 0.8951533117868987
N 5.5602894 1.5958196 59.041782 0.8952454171259844
N 1.9087845 3.4407747 51.478554 0.8869418304676625
N 1.0218247 0.35043877 56.990627 0.8864831628419249
N 3.5402849 3.9645414 56.013332 0.8869699223603935
N 0.28907618 5.8580365 53.67247 0.8930852286748909
N 1.1054809 5.1679935 59.182514 0.8928473196402548
N 5.159178 1.5467737 53.81928 0.8929344514083661
N 0.33888564 0.37758365 60.628468 0.8897679653542877
N -0.07089853 5.8289094 59.476135 0.8951562685962076
N 4.466993 7.0738564 61.527294 0.8864718646358306
N 4.383787 2.2566633 59.335403 0.8929708199254799
N 2.8753767 3.995802 63.401524 0.8899694082045226
N -1.40476 7.0648227 68.91765 0.8898260502606333
N 2.6554623 3.445816 66.14243 0.8899546211058753
N 1.5094769 5.2195926 64.990234 0.8952364042665966
N 4.0204277 2.2211502 64.553856 0.8951412166428672
N 5.601162 1.6138583 70.06782 0.8952432701412689
N 1.949657 3.4588134 62.50459 0.8869362688582273
N 1.0626972 0.3684775 68.01666 0.8864800700444827
N 3.5811572 3.9825802 67.03937 0.8869746381982475
N 0.32995528 5.876075 64.69864 0.8930905623939883
N 1.14636 5.1860323 70.20869 0.8928610242597974
N 5.2000504 1.5648124 64.84545 0.8929173864237082
N 0.37976474 0.39562237 71.6545 0.8897860853491257
N -0.030026028 5.846948 70.502174 0.8951629740659248
N 4.507872 7.091895 72.55347 0.886471766968543
N 4.424666 2.274702 70.361435 0.8929679987651815
N 2.916244 4.0138335 74.42567 0.8899798613172806
N -1.3638941 7.0828614 79.94166 0.8898238557987641
N 2.6963298 3.4638476 77.16657 0.8899594390196098
N 1.5503429 5.2376313 76.014244 0.8952341023028864
N 4.0612936 2.239189 75.577866 0.8951524259988594
N 5.642028 1.6318971 81.091965 0.895244154572818
N 1.9905311 3.476845 73.52873 0.8869402976338425
N 1.1035697 0.3865162 79.0408 0.8864812203480928
N 3.6220298 4.000619 78.06351 0.8869693892597817
N 0.37082118 5.8941135 75.72265 0.8930855433805955
N 1.1872259 5.204071 81.2327 0.8928472884409824
N 5.2409163 1.5828512 75.86946 0.8929343364458296
N 0.42063063 0.4136611 82.67865 0.889768008083726
N 0.01084143 5.8649797 81.52631 0.8951573877005452
N 4.5487394 7.1099267 83.57747 0.8864731258325067
N 4.465532 2.2927408 81.38558 0.8929696085798151
N 2.9571233 4.0318723 85.4517 0.8899690151615144
N -1.3230215 7.1009 90.96783 0.8898073496880299
N 2.7372022 3.4818864 88.19261 0.8899741623632221
N 1.5912219 5.25567 87.04041 0.8952399226628094
N 4.102166 2.2572274 86.604034 0.8951402013100227
N 5.682907 1.6499358 92.118 0.8954704693473944
N 2.0314035 3.4948838 84.55476 0.886934024206224
N 1.1444422 0.40455493 90.06684 0.8865992421089016
N 3.6629024 4.0186577 89.08955 0.8870073604699559
N 0.4116937 5.9121523 86.74882 0.8930910985467029
N 1.2280984 5.22211 92.258865 0.886582954732197
N 5.2817955 1.6008899 86.89563 0.8929169730333484
N 0.46150315 0.4316998 93.70468 0.8762121626109661
N 0.051720534 5.8830185 92.55235 0.8907086217227909
N 4.589612 7.1279655 94.603645 0.8899803632186198
N 4.5064044 2.3107796 92.41161 0.8936470268521747
O 0.85583967 4.0964036 40.23332 0.9449043783347527
O 0.44893858 6.892963 45.745255 0.9195680176114651
O 4.5114408 3.272763 45.20839 0.9199962538647928
O 2.1268399 2.3103745 39.99993 0.945259553106547
O 0.7183062 1.4430547 45.50998 0.9165623523707828
O 3.2407005 5.0588717 45.44569 0.9175811872556286
O 0.2842637 6.7720733 41.839993 0.9373830228747589
O 1.022426 4.2138724 47.356113 0.9256321993758947
O 5.0819926 0.59629774 43.60158 0.9252732275134019
O -0.75556374 5.4546456 43.27379 0.9285575703190779
O 6.1222425 1.9143109 42.171833 0.9271890514682558
O 3.3353689 1.8528968 47.6939 0.9278245369395574
O 4.95813 0.49533442 50.724514 0.9195377845000391
O 4.6884146 5.945019 50.95979 0.9166387169780752
O 4.385238 3.1747868 49.115677 0.9258748391059601
O 2.072132 5.535538 48.775867 0.9278250004023738
O 0.8967071 4.114435 51.257324 0.9199403112762686
O 0.48980603 6.9109945 56.769398 0.9195353667831343
O 4.5523067 3.2908015 56.232533 0.9199087983465898
O 2.1677058 2.3284132 51.02408 0.9173141720927147
O 0.7591721 1.4610933 56.534122 0.9166002249931504
O 3.2815664 5.0769105 56.4697 0.9174546686849718
O 0.3251296 6.790112 52.864136 0.9261703953597432
O 1.0632919 4.231911 58.380123 0.9256289725054437
O 5.1228666 0.6143293 54.625725 0.9260036169519372
O -0.7146962 5.472677 54.29793 0.9285309508619708
O 6.1631083 1.9323497 53.195976 0.9283195321732108
O 3.376235 1.8709356 58.718044 0.9278169296253014
O 4.9989963 0.51337314 61.748524 0.9195567623280017
O 4.7292805 5.963057 61.983795 0.9166671580897628
O 4.426104 3.1928256 60.13982 0.9259026261165612
O 2.112998 5.553577 59.799877 0.927825568080778
O 0.9375781 4.132481 62.283497 0.9199479054576659
O 0.5306786 6.9290333 67.79543 0.919529774727213
O 4.593179 3.3088403 67.25857 0.9199112075906825
O 2.2085848 2.346452 62.05011 0.9173280081947139
O 0.8000512 1.479132 67.56016 0.9165902164839731
O 3.322439 5.0949492 67.49587 0.9174676905497376
O 0.36600873 6.808151 63.89017 0.9262130504608453
O 1.1041644 4.24995 69.406296 0.9256330021748319
O 5.163738 0.63237524 65.65176 0.9259792165242934
O -0.6738238 5.490716 65.32397 0.9285185953838689
O -0.3917725 1.9503883 64.222015 0.9283369531219681
O 3.417114 1.8889742 69.74408 0.9278150435773498
O 5.039875 0.5314119 72.77456 0.9195357662762202
O 4.770153 5.981096 73.009964 0.9166415261388945
O 4.4669766 3.2108643 71.165855 0.925880628578401
O 2.1538706 5.5716157 70.82604 0.9278241001660986
O 0.97844553 4.1505127 73.3075 0.9199392449728782
O 0.571551 6.947072 78.81957 0.919531874290027
O 4.634045 3.326879 78.28258 0.91990616542026
O 2.2494524 2.3644834 73.07426 0.9173092947184859
O 0.8409171 1.4971708 78.584305 0.9165962372641816
O 3.3633065 5.1129804 78.519875 0.9174565966733428
O 0.40687463 6.8261895 74.914314 0.9261671180760609
O 1.1450318 4.267981 80.430305 0.9256264556566386
O 5.204605 0.6504067 76.6759 0.9260076292520607
O -0.63295126 5.5087547 76.348114 0.9285348585228662
O -0.3509066 1.9684271 75.246155 0.9283169941423756
O 3.45798 1.9070129 80.76822 0.9278135172002676
O 5.0807424 0.54944336 83.7987 0.9195599104013009
O 4.8110256 5.9991345 84.03397 0.9166694436308003
O 4.507844 3.2288957 82.19 0.9259053992679295
O 2.1947365 5.589654 81.85005 0.9278272698450686
O 1.0193247 4.1685514 84.33367 0.9199457669199167
O 0.61242354 6.965111 89.84561 0.9196188231340724
O 4.674924 3.3449178 89.30875 0.9199480185697062
O 2.2903233 2.3825295 84.10029 0.917322700825276
O 0.8817896 1.5152096 89.61034 0.9167057225172303
O 3.4041855 5.131019 89.54605 0.9174424902886408
O 0.44774714 6.844228 85.940346 0.9262068233676645
O 1.1859094 4.2860274 91.456474 0.924910478894959
O 5.2454844 0.66844547 87.701935 0.9259796829525941
O -0.59207875 5.5267935 87.374146 0.9285260421383376
O -0.3100341 1.9864658 86.272194 0.9283358436072364
O 3.4988525 1.9250517 91.79426 0.9278254613233468
O 5.121615 0.5674821 94.82474 0.9449770695544016
O 4.851898 6.0171733 95.06014 0.9452378665205873
O 4.548722 3.2469416 93.216034 0.9372953618908649
O 2.2356155 5.6076927 92.87622 0.9266708797046521
lattice_vector 6.59576 0.0 0.0 
lattice_vector -1.545044 7.232849 0.0 
lattice_vector 0.0 0.0 135.060078 
