504

H 3.4398866 5.5797305 42.451347 0.7873414776990223
H 4.468875 5.4111257 47.9754 0.8207311298392237
H 1.9266098 1.7891537 42.99438 0.820472261413533
H 4.362726 2.847587 40.54705 0.7228227486292261
H 5.0806704 0.90591437 46.066982 0.824973571084455
H 1.0053191 4.5223823 44.898678 0.8254963068159877
H 2.2269418 6.0027947 41.222664 0.7359179101468981
H -0.91947496 4.9860587 46.742775 0.8228935264004564
H 3.1407359 1.3669506 44.218945 0.8231724858219464
H 4.791986 4.0175076 41.833958 0.7806900184217377
H 3.1144688 6.975316 47.364105 0.8140196840001228
H 0.5746531 3.351666 43.61374 0.8137185753386539
H 0.93879396 1.9771717 48.49622 0.8207350041220912
H 0.32608116 6.482014 50.402664 0.825112828187248
H -0.26871297 2.4023836 49.729023 0.8229630685216773
H 2.2930682 0.4129812 49.107693 0.8139854526256083
H 3.480754 5.597762 53.475445 0.8206511939868958
H 4.5097475 5.4291644 58.9995 0.8207274254017008
H 1.9674758 1.8071924 54.018482 0.8203963706944198
H 4.403594 2.8656187 51.571148 0.8254471511611661
H 5.1215367 0.92395306 57.091084 0.8249330634721952
H 1.046185 4.540421 55.922775 0.8253539945069904
H 2.2678094 6.020826 52.24676 0.8235039817251233
H -0.87860906 5.004097 57.766876 0.8228416090000265
H 3.1816018 1.3849894 55.243042 0.8232970769299566
H 4.832852 4.0355463 52.85806 0.8142305485033307
H 3.155343 6.9933476 58.388203 0.8140079485912914
H 0.615519 3.3697047 54.637836 0.8141438359222412
H 0.9796599 1.9952103 59.520317 0.8206764918982691
H 0.36694705 6.500053 61.426765 0.8250171570179663
H -0.22784552 2.4204152 60.75312 0.8228851818685109
H 2.333934 0.43101993 60.131794 0.813938960226195
H 3.5216331 5.615801 64.50152 0.8206034795050008
H 4.55062 5.447203 70.025566 0.8207311539592725
H 2.0083482 1.8252312 65.04455 0.8203968561104056
H 4.4444647 2.8836646 62.597218 0.8253455625398675
H 5.162409 0.9419918 68.11715 0.8249317207894687
H 1.0870641 4.5584598 66.948845 0.8253537925015804
H 2.3086884 6.0388646 63.272835 0.8234365772432434
H -0.83772993 5.0221357 68.792946 0.8228426954072325
H 3.222481 1.403028 66.26911 0.8232939805186686
H 4.873731 4.053585 63.88413 0.8141897444154687
H 3.196214 7.0113935 69.414276 0.8140074933253669
H 0.6563915 3.3877435 65.66391 0.8141429565454554
H 1.0205324 2.0132492 70.54657 0.8207180356676329
H 0.40782616 6.5180917 72.452835 0.8251112030989478
H -0.18696795 2.438461 71.77919 0.822959545989524
H 2.3748064 0.44905865 71.15786 0.813977996515467
H 3.562499 5.6338396 75.52561 0.8206559195064921
H 4.591486 5.465242 81.04967 0.820730351967644
H 2.0492208 1.8432698 76.06865 0.8203950601717585
H 4.485332 2.901696 73.621315 0.8254453914025923
H 5.2032747 0.9600305 79.14125 0.8249311368832829
H 1.12793 4.5764985 77.972946 0.8253575110091315
H 2.3495543 6.0569034 74.296936 0.8235048259268377
H -0.79686403 5.0401745 79.81705 0.8228420522059264
H 3.263347 1.4210668 77.29321 0.8232982809224015
H 4.9145985 4.0716166 74.908226 0.8142316861656409
H 3.2370813 7.029425 80.43837 0.8140052612158339
H 0.697264 3.4057822 76.68801 0.8141437354220371
H 1.0614065 2.0312805 81.57049 0.8206755220712996
H 0.44869208 6.5361304 83.47694 0.8250172545031641
H -0.1461005 2.4564924 82.80329 0.8228915385064195
H 2.4156725 0.4670974 82.18196 0.8139377491987357
H 3.6033716 5.6518784 86.55168 0.8206041166762947
H 4.6323647 5.4832807 92.07574 0.8207318162556174
H 2.0900931 1.8613086 87.09472 0.820395512422677
H 4.5262113 2.9197347 84.64739 0.8253526749393109
H 5.244154 0.97806925 90.1675 0.8249170547946861
H 1.1688025 4.5945373 88.999016 0.8253545753981701
H 2.3904269 6.074942 85.323006 0.8234367048785024
H -0.7559915 5.058213 90.84312 0.8228419768307733
H 3.3042195 1.4391055 88.31928 0.8232921423699359
H 4.955471 4.0896554 85.934296 0.8141888670486871
H 3.2779605 7.047464 91.46444 0.8140014291430521
H 0.73813653 3.423821 87.71408 0.8141430570456595
H 1.102279 2.0493193 92.59673 0.8207171814158982
H 0.4895646 6.554169 94.503006 0.8251118814753255
H -0.10522799 2.4745312 93.82936 0.8229592083088383
H 2.4565516 0.48513612 93.20803 0.8139782407309629
H 3.6442375 5.669917 97.57578 0.8206567094380962
H 4.6732326 5.5013123 103.09984 0.8207321046912033
H 2.1309593 1.8793473 98.11882 0.8203929788125319
H 4.567077 2.9377735 95.671486 0.8254442175602086
H 5.28502 0.99610794 101.19142 0.8249312464285053
H 1.20967 4.612569 100.02312 0.8253550628241599
H 2.4312994 6.092981 96.3471 0.8235042993057683
H -0.71511745 5.076245 101.86721 0.8228422833563959
H 3.3450854 1.4571443 99.34338 0.8232947563802441
H 4.9963436 4.107694 96.9584 0.8142313102948776
H 3.3188264 7.0655026 102.48854 0.8140059536622402
H 0.7790024 3.4418597 98.738174 0.8141439555174841
H 1.1431448 2.067358 103.62066 0.8206733150868177
H 0.53043866 6.572201 105.5271 0.8250187650212315
H -0.06436208 2.49257 104.85346 0.8228916329766113
H 2.4974189 0.5031676 104.23213 0.8139379773341989
H 3.6851165 5.687956 108.60185 0.8205983057544943
H 4.714105 5.519351 114.12591 0.8207332443635177
H 2.1718383 1.8973861 109.14489 0.8203986229039935
H 4.6079497 2.9558122 106.697556 0.8253544095728335
H 5.3258924 1.0141467 112.21767 0.8249129121762736
H 1.2505491 4.630607 111.04919 0.8253562949566621
H 2.4721718 6.1110196 107.37317 0.8234339240378553
H -0.67424655 5.0942907 112.89328 0.8228425275718918
H 3.3859644 1.475183 110.36945 0.8232878851812907
H 5.0372157 4.125733 107.98447 0.8141931352923547
H 3.359699 7.0835414 113.51461 0.8140011306574461
H 0.81988156 3.4598985 109.764244 0.8141493574034537
H 1.1840174 2.0853968 114.646904 0.8207155432625715
H 0.5713112 6.5902395 116.55317 0.8251133286782644
H -0.023482973 2.5106087 115.87953 0.822959250518924
H 2.53829 0.5212136 115.2582 0.8139780387255526
H 3.7259824 5.7059946 119.62595 0.8206578159453433
H 4.754971 5.5373898 125.15001 0.8207368271957934
H 2.2127056 1.9154176 120.16899 0.8203917135149623
H 4.6488223 2.973851 117.72166 0.8254432839133127
H 5.3667665 1.0321782 123.24159 0.8249296424452481
H 1.291415 4.648646 122.07329 0.8253550256390844
H 2.5130377 6.1290584 118.39727 0.8235042329756335
H -0.63337904 5.1123223 123.91738 0.8228415597549265
H 3.426832 1.4932145 121.39355 0.8232951533560502
H 5.0780816 4.1437716 119.00857 0.8142316057654776
H 3.400565 7.10158 124.53871 0.8140067657038892
H 0.860749 3.4779298 120.788345 0.8141437022569696
H 1.2248899 2.1034355 125.67083 0.820671995519138
H 0.6121771 6.608278 127.57727 0.8250221468530992
H 0.01738294 2.5286474 126.903625 0.8228956570047831
H 2.579164 0.53924507 126.2823 0.8139392325817482
H 3.766855 5.7240334 130.65202 0.8206044473219662
H 4.79585 5.5554285 136.17607 0.8209207787493483
H 2.2535782 1.9334563 131.19505 0.8203968018402954
H 4.689695 2.9918897 128.74773 0.8253645389884035
H 5.4076376 1.0502242 134.26784 0.8250706552866065
H 1.3322875 4.6666846 133.09935 0.8253954659162075
H 2.553917 6.147097 129.42334 0.823433224556435
H -0.5925 5.130361 134.94345 0.8227081598040278
H 3.4677043 1.5112531 132.41962 0.8233462436398005
H 5.118961 4.1618104 130.03464 0.8141913634737566
H 3.441444 7.119619 135.56479 0.8135881089887126
H 0.90162 3.495976 131.81442 0.8141594305389096
H 1.2657624 2.1214743 136.69708 0.7881248798048965
H 0.65305614 6.6263165 138.60335 0.7233204286548774
H 0.05825545 2.5466862 137.9297 0.736486207645954
H 2.6200366 0.55728376 137.30836 0.781128479707132
C 2.5119095 5.2525887 41.966717 0.8476769131195867
C -1.2011416 5.7379785 47.486828 0.8700878581358794
C 2.8550498 2.1165051 43.474888 0.8696863820418088
C 4.0530686 3.2794316 41.504124 0.8457381196832913
C 5.396676 0.47850358 47.02424 0.868945134650712
C 1.3139881 4.0898867 43.94142 0.8690553275450452
C 0.012903134 1.6503915 48.98497 0.8701363376364164
C 0.010590333 6.909794 49.44541 0.8689109749206309
C 2.5527754 5.2706275 52.990818 0.8702873911601136
C -1.1602741 5.7560096 58.51093 0.8700764988717823
C 2.8959224 2.134544 54.49899 0.8701116418553363
C 4.093941 3.2974703 52.528225 0.8691052945522704
C 5.4375486 0.4965423 58.048336 0.8689299654137314
C 1.3548622 4.1079183 54.965523 0.8690840930820982
C 0.05376905 1.6684302 60.009068 0.870105269781805
C 0.05145779 6.9278255 60.46951 0.8688794022755071
C 2.593648 5.2886662 64.016884 0.8702621766187996
C -1.1194016 5.7740483 69.536995 0.8700806398196052
C 2.936795 2.1525826 65.52506 0.8701101070665136
C 4.1348133 3.315509 63.554295 0.869075595461715
C 5.478421 0.514581 69.07441 0.8689285587702384
C 1.3957347 4.125957 65.99159 0.8690843262689875
C 0.09464815 1.686469 71.03514 0.8701290983655598
C 0.0923303 6.945864 71.49558 0.8689090180850306
C 2.634522 5.306698 75.040985 0.8702904276939946
C -1.0785291 5.792087 80.5611 0.8700772113275773
C 2.977661 2.1706214 76.54916 0.870111542455395
C 4.175679 3.3335478 74.57839 0.8691053402225136
C 5.5192885 0.53261256 80.0985 0.8689278001069031
C 1.4366006 4.143996 77.01569 0.86908538608728
C 0.13551407 1.7045077 82.059235 0.8701059150754776
C 0.13319622 6.963903 82.51968 0.8688796803266943
C 2.6753945 5.3247366 86.067055 0.8702625863077468
C -1.0376567 5.810126 91.587166 0.8700800767323703
C 3.01854 2.1886601 87.575226 0.8701099587725474
C 4.2165585 3.3515866 85.60446 0.8690755280309442
C 5.560168 0.55065125 91.12457 0.8689172121326202
C 1.4774797 4.1620345 88.04176 0.8690853396110912
C 0.17638658 1.7225463 93.085304 0.8701289635040178
C 0.17407532 6.9819417 93.545746 0.868909537113913
C 2.7162604 5.3427753 97.091156 0.8702904072767094
C -0.9967907 5.8281646 102.61127 0.8700783369647499
C 3.0594075 2.2066915 98.59933 0.8701107644493683
C 4.2574244 3.3696253 96.62856 0.8691047929855399
C 5.6010337 0.56869 102.148674 0.8689278199868912
C 1.5183456 4.1800733 99.065865 0.8690855625893378
C 0.21725908 1.7405851 104.109406 0.8701053167952908
C 0.21494123 6.99998 104.56985 0.8688805520910439
C 2.7571394 5.360814 108.117226 0.8702603022582859
C -0.9559116 5.8462033 113.63734 0.8700808098740992
C 3.1002798 2.2247303 109.6254 0.8701095931419526
C 4.298297 3.3876638 107.65463 0.8690774612254774
C 5.6419063 0.5867287 113.17474 0.8689162732061481
C 1.5592182 4.198112 110.091934 0.8690867774178092
C 0.2581316 1.7586238 115.135475 0.8701281403650449
C 0.25581375 7.0180187 115.59592 0.8689104978009129
C 2.7980053 5.378853 119.14133 0.8702905270939358
C -0.9150457 5.864242 124.66144 0.8700807569503467
C 3.1411457 2.242769 120.6495 0.87011061830459
C 4.3391643 3.4056954 118.678734 0.8691043427306708
C 5.682772 0.60476744 124.198845 0.8689270280111432
C 1.6000841 4.2161508 121.11603 0.8690859421896541
C 0.29899904 1.7766553 126.15958 0.8701059607457211
C 0.29667965 7.0360575 126.62002 0.8688828017534981
C 2.838878 5.3968916 130.16739 0.8702619189848979
C -0.87417316 5.882281 135.6875 0.869652051988585
C 3.182025 2.2608078 131.67557 0.8701164597973537
C 4.3800435 3.4237342 129.70499 0.8690830937097158
C 5.7236514 0.6228062 135.22491 0.8688930652004051
C 1.6409632 4.2341895 132.1421 0.8691033404031551
C 0.33987662 1.7947013 137.18564 0.8479848004078893
C 0.33755875 7.054096 137.64609 0.8458767304835316
N 2.7936316 3.9597244 41.3513 0.8762531655765274
N -1.486505 7.028745 46.86747 0.8898468042201351
N 2.5737174 3.4097385 44.092278 0.8899368053039436
N 1.427732 5.183515 42.940094 0.8954269507709312
N 3.9386826 2.1850727 42.503662 0.8906343603328066
N 5.5194154 1.5777881 48.01768 0.8952507098112561
N 1.8679186 3.422736 40.454426 0.8900594676174056
N 0.9809572 0.33240727 45.966473 0.8865105964978317
N 3.4994173 3.94651 44.989155 0.8870942056795323
N 0.24821025 5.839998 42.648422 0.8937480256795189
N 1.0646135 5.149962 48.1585 0.8928632882417845
N 5.118305 1.5287349 42.795155 0.8866586180547058
N 0.29801816 0.35955215 49.604324 0.8897832499456815
N -0.111764446 5.810871 48.452145 0.8951625254068224
N 4.426127 7.0558176 50.503174 0.8864728938726987
N 4.3429213 2.2386246 48.311325 0.8929734874632737
N 2.8345058 3.977756 52.3754 0.8899785831644781
N -1.4456391 7.046784 57.89157 0.8898270723759284
N 2.6145847 3.4277701 55.116375 0.8899532385033346
N 1.4686044 5.201554 53.964016 0.8952303393993318
N 3.9795485 2.2031114 53.52776 0.8951477942633919
N 5.5602894 1.5958196 59.041782 0.8952486493027848
N 1.9087845 3.4407747 51.478523 0.8869419393259935
N 1.0218247 0.35043877 56.990574 0.8864837142551529
N 3.5402849 3.9645414 56.013252 0.8869743136579896
N 0.28907618 5.8580365 53.672523 0.8930850608092404
N 1.1054809 5.1679935 59.182602 0.8928484245014462
N 5.159178 1.5467737 53.819256 0.8929302486628947
N 0.33888564 0.37758365 60.628426 0.8897678195316012
N -0.07089853 5.8289094 59.476067 0.8951501131832285
N 4.466993 7.0738564 61.52727 0.8864696657653686
N 4.383787 2.2566633 59.335426 0.8929661630949455
N 2.8753767 3.995802 63.40147 0.8899648453109279
N -1.40476 7.0648227 68.91764 0.8898272931446932
N 2.6554623 3.445816 66.14245 0.8899530719941742
N 1.5094769 5.2195926 64.990265 0.8952330774746112
N 4.0204277 2.2211502 64.55383 0.8951393619817695
N 5.601162 1.6138583 70.06785 0.8952469448729664
N 1.949657 3.4588134 62.504593 0.8869327602965676
N 1.0626972 0.3684775 68.01664 0.8864800378278428
N 3.5811572 3.9825802 67.03932 0.8869747419697407
N 0.32995528 5.876075 64.69859 0.8930861809309455
N 1.14636 5.1860323 70.20867 0.8928629938834315
N 5.2000504 1.5648124 64.84532 0.8929170188148894
N 0.37976474 0.39562237 71.654495 0.8897811809591469
N -0.030026028 5.846948 70.50231 0.8951637235267086
N 4.507872 7.091895 72.553345 0.8864731041286651
N 4.424666 2.274702 70.361496 0.8929713757473009
N 2.916244 4.0138335 74.42557 0.8899791152477222
N -1.3638941 7.0828614 79.94174 0.8898267651309193
N 2.6963298 3.4638476 77.16654 0.889953352109381
N 1.5503429 5.2376313 76.014366 0.8952340497388948
N 4.0612936 2.239189 75.57793 0.8951475704425245
N 5.642028 1.6318971 81.09195 0.8952480958548216
N 1.9905311 3.476845 73.528694 0.88693592024027
N 1.1035697 0.3865162 79.04074 0.8864824011727302
N 3.6220298 4.000619 78.06342 0.8869747382393929
N 0.37082118 5.8941135 75.722694 0.8930858329912332
N 1.1872259 5.204071 81.23277 0.892848510638568
N 5.2409163 1.5828512 75.86942 0.8929309513247699
N 0.42063063 0.4136611 82.6786 0.8897676910041638
N 0.01084143 5.8649797 81.52624 0.8951510257619474
N 4.5487394 7.1099267 83.577446 0.886469748511265
N 4.465532 2.2927408 81.3856 0.8929726742474551
N 2.9571233 4.0318723 85.45164 0.8899648883794888
N -1.3230215 7.1009 90.96781 0.8898244017860318
N 2.7372022 3.4818864 88.19261 0.8899532802154054
N 1.5912219 5.25567 87.040436 0.8952340839902699
N 4.102166 2.2572274 86.604 0.8951391320566965
N 5.682907 1.6499358 92.11802 0.8952443156560181
N 2.0314035 3.4948838 84.55476 0.8869324238870213
N 1.1444422 0.40455493 90.06681 0.8864775011913443
N 3.6629024 4.0186577 89.08949 0.8869751641772862
N 0.4116937 5.9121523 86.748764 0.8930858441822767
N 1.2280984 5.22211 92.25884 0.8928631315671772
N 5.2817955 1.6008899 86.89549 0.8929174213533285
N 0.46150315 0.4316998 93.704666 0.88978144445735
N 0.051720534 5.8830185 92.55248 0.8951635037753114
N 4.589612 7.1279655 94.603516 0.8864736504550553
N 4.5064044 2.3107796 92.41167 0.8929702454519199
N 2.9979892 4.049911 96.47574 0.8899793824762732
N -1.2821556 7.118939 101.99191 0.8898274410021147
N 2.778068 3.499925 99.21671 0.8899535959384777
N 1.6320894 5.2737017 98.06454 0.8952338432132761
N 4.143032 2.2752662 97.6281 0.8951473947770557
N 5.723773 1.6679746 103.14212 0.8952476556737821
N 2.0722694 3.5129225 95.578865 0.8869348520043114
N 1.1853081 0.42259368 101.09091 0.8864789295754261
N 3.7037683 4.0366964 100.113594 0.8869762812468887
N 0.45256114 5.930184 97.77286 0.8930842157159042
N 1.2689643 5.2401485 103.282936 0.8928493492885761
N 5.3226614 1.6189286 97.91959 0.8929308075368185
N 0.50237566 0.44973856 104.72877 0.889767943650446
N 0.09258645 5.9010572 103.5764 0.8951521051889494
N 4.630478 7.146004 105.62761 0.8864720341970939
N 4.547272 2.328811 103.43576 0.8929729530061719
N 3.0388618 4.06795 107.50181 0.8899647798602803
N -1.2412765 7.1369777 113.01798 0.8898244902970114
N 2.8189473 3.5179636 110.24278 0.8899540303544342
N 1.672962 5.2917404 109.09061 0.895233394215051
N 4.1839113 2.293305 108.65417 0.895140926693107
N 5.7646456 1.6860132 114.16819 0.8952431646741631
N 2.113142 3.5309613 106.604935 0.8869315085953222
N 1.2261872 0.4406324 112.11698 0.8864757906573203
N 3.7446408 4.054735 111.13966 0.8869773196400649
N 0.49344027 5.9482226 108.79893 0.8930861429492226
N 1.3098434 5.2581873 114.309006 0.8928630355955022
N 5.363534 1.6369673 108.94584 0.8929157376099842
N 0.5432482 0.46777728 115.75484 0.8897813518769003
N 0.13345896 5.919096 114.60265 0.8951644116063149
N 4.671357 7.164043 116.65368 0.8864751120731447
N 4.588151 2.3468497 114.46183 0.892970201026869
N 3.0797276 4.0859885 118.52591 0.8899792553053256
N -1.200409 7.1550093 124.042076 0.8898277078915432
N 2.8598132 3.5360024 121.266884 0.8899536878406823
N 1.7138278 5.309779 120.1147 0.8952341758924746
N 4.2247787 2.3113365 119.67827 0.8951467206014729
N 5.8055115 1.704052 125.19229 0.8952469818373219
N 2.1540146 3.5489998 117.62903 0.8869337230654205
N 1.2670531 0.45867112 123.14108 0.8864772556666349
N 3.7855132 4.072774 122.16376 0.8869767217670506
N 0.53430617 5.9662614 119.82303 0.8930842587844652
N 1.3507109 5.276219 125.33311 0.8928498220253782
N 5.4044013 1.6549988 119.969765 0.8929307139390013
N 0.5841141 0.485816 126.77893 0.8897678629392848
N 0.17432487 5.9371347 125.626755 0.895156778297365
N 4.712223 7.1820817 127.67778 0.8864732862374618
N 4.629017 2.3648884 125.48593 0.8929738201424723
N 3.1206067 4.104027 129.55197 0.8899674128075764
N -1.1595381 7.173055 135.06815 0.8898047726959508
N 2.9006858 3.5540411 132.29295 0.889973150421603
N 1.754707 5.327818 131.14078 0.8952370316432706
N 4.265651 2.3293753 130.70435 0.8951375402155569
N 5.8463902 1.7220907 136.21835 0.8954705683711721
N 2.194887 3.5670385 128.6551 0.886932258734351
N 1.3079257 0.47670984 134.16714 0.8865964406177099
N 3.8263857 4.0908127 133.18983 0.8870093501018191
N 0.5751787 5.9843 130.8491 0.8930864688459705
N 1.3915819 5.294265 136.35918 0.8865850623786995
N 5.4452806 1.6730375 130.99602 0.8929188802584377
N 0.6249932 0.50385475 137.80501 0.8762067783626122
N 0.21520397 5.9551735 136.65282 0.8907078044375019
N 4.753095 7.2001204 138.70386 0.8899850817694542
N 4.6698895 2.3829272 136.51201 0.8936486003806978
O 0.85583967 4.0964036 40.23334 0.9449076784950273
O 0.44893858 6.892963 45.745388 0.9195650775457004
O 4.5114408 3.272763 45.208447 0.9199995828326283
O 2.1268399 2.3103745 40.000072 0.9452467938989532
O 0.7183062 1.4430547 45.50997 0.9165623951584834
O 3.2407005 5.0588717 45.445656 0.917582676352338
O 0.2842637 6.7720733 41.84005 0.9373609338302292
O 1.022426 4.2138724 47.35604 0.925640358270212
O 5.0819926 0.59629774 43.601555 0.9252895173417567
O -0.75556374 5.4546456 43.273872 0.9285665908983759
O 6.1222425 1.9143109 42.171856 0.9271723316446917
O 3.3353689 1.8528968 47.69394 0.9278320315654137
O 4.95813 0.49533442 50.724438 0.9195404504703354
O 4.6884146 5.945019 50.959675 0.9166437917688237
O 4.385238 3.1747868 49.115757 0.9258763379464033
O 2.072132 5.535538 48.775887 0.927823304145411
O 0.8967071 4.114435 51.25744 0.9199374855934659
O 0.48980603 6.9109945 56.76931 0.9195351447954598
O 4.5523067 3.2908015 56.232544 0.9199121493437366
O 2.1677058 2.3284132 51.023994 0.9173183682528588
O 0.7591721 1.4610933 56.534073 0.916594315206779
O 3.2815664 5.0769105 56.469753 0.9174666322955185
O 0.3251296 6.790112 52.86415 0.9261780175014201
O 1.0632919 4.231911 58.380142 0.9256405497557633
O 5.1228666 0.6143293 54.625656 0.9259970886502897
O -0.7146962 5.472677 54.29797 0.9285263412286011
O 6.1631083 1.9323497 53.195953 0.928319067015832
O 3.376235 1.8709356 58.718037 0.9278259184315543
O 4.9989963 0.51337314 61.748535 0.9195525043163301
O 4.7292805 5.963057 61.983772 0.9166618375874662
O 4.426104 3.1928256 60.139675 0.9258783515101756
O 2.112998 5.553577 59.799988 0.9278239963741516
O 0.9375781 4.132481 62.28351 0.919950686234565
O 0.5306786 6.9290333 67.79556 0.919528223778976
O 4.593179 3.3088403 67.25861 0.9199129402807369
O 2.2085848 2.346452 62.050243 0.9173185300835681
O 0.8000512 1.479132 67.56014 0.916592155063359
O 3.322439 5.0949492 67.49583 0.9174672702982624
O 0.36600873 6.808151 63.89022 0.9261960218032838
O 1.1041644 4.24995 69.40621 0.925641314850687
O 5.163738 0.63237524 65.651726 0.9259937740862346
O -0.6738238 5.490716 65.32404 0.9285263052191501
O -0.3917725 1.9503883 64.22202 0.9283237706974148
O 3.417114 1.8889742 69.74411 0.9278232359392744
O 5.039875 0.5314119 72.774605 0.9195408397960468
O 4.770153 5.981096 73.00984 0.9166450529468902
O 4.4669766 3.2108643 71.165924 0.9258786933881398
O 2.1538706 5.5716157 70.82606 0.9278205606488849
O 0.97844553 4.1505127 73.30761 0.9199380193806221
O 0.571551 6.947072 78.81948 0.9195331867286063
O 4.634045 3.326879 78.282715 0.9199131537955992
O 2.2494524 2.3644834 73.07434 0.9173000114820159
O 0.8409171 1.4971708 78.58424 0.9165923884893298
O 3.3633065 5.1129804 78.51992 0.9174675469355743
O 0.40687463 6.8261895 74.91432 0.9261738518433994
O 1.1450318 4.267981 80.43031 0.925640258714671
O 5.204605 0.6504067 76.67583 0.9259993966442791
O -0.63295126 5.5087547 76.34814 0.9285280794259835
O -0.3509066 1.9684271 75.246124 0.9283196173249715
O 3.45798 1.9070129 80.7682 0.9278211308691326
O 5.0807424 0.54944336 83.798706 0.9195543416456127
O 4.8110256 5.9991345 84.03394 0.9166618994389938
O 4.507844 3.2288957 82.190025 0.9259008675844301
O 2.1947365 5.589654 81.85016 0.9278243162228048
O 1.0193247 4.1685514 84.33368 0.9199501465164405
O 0.61242354 6.965111 89.845726 0.9195251087496434
O 4.674924 3.3449178 89.308784 0.9199136799572246
O 2.2903233 2.3825295 84.10041 0.9173170833509187
O 0.8817896 1.5152096 89.61031 0.9165885168378854
O 3.4041855 5.131019 89.54599 0.9174675346499968
O 0.44774714 6.844228 85.94039 0.9261940980513186
O 1.1859094 4.2860274 91.45638 0.9256396880707826
O 5.2454844 0.66844547 87.7019 0.9259973174162138
O -0.59207875 5.5267935 87.37421 0.9285266013439296
O -0.3100341 1.9864658 86.272194 0.9283209856841098
O 3.4988525 1.9250517 91.79427 0.9278192058462458
O 5.121615 0.5674821 94.824776 0.9195423721040975
O 4.851898 6.0171733 95.06001 0.9166457443283497
O 4.548722 3.2469416 93.216095 0.9258803396555119
O 2.2356155 5.6076927 92.87623 0.9278236854219511
O 1.0601906 4.18659 95.35778 0.9199351293044483
O 0.6532895 6.9831495 100.86983 0.9195252549056505
O 4.7157917 3.3629494 100.332886 0.9199167843955423
O 2.3311973 2.4005609 95.12451 0.9172985507692267
O 0.9226555 1.5332483 100.63441 0.9165892077957042
O 3.4450514 5.149058 100.57009 0.9174685962933407
O 0.4886146 6.8622594 96.964485 0.9261715133472868
O 1.2267768 4.3040586 102.48048 0.9256387929181947
O 5.2863503 0.68648416 98.72599 0.9260013864841777
O -0.5512128 5.544832 98.39831 0.9285283073446262
O -0.26916817 2.0045044 97.296295 0.9283167391107343
O 3.5397248 1.9430904 102.818375 0.9278186157148898
O 5.162481 0.5855208 105.84888 0.9195563136926062
O 4.8927655 6.035205 106.084114 0.9166658986062587
O 4.589589 3.2649732 104.2402 0.9259042800094639
O 2.276483 5.6257243 103.90033 0.9278277256823543
O 1.101063 4.204629 106.38385 0.9199473187154348
O 0.69416857 7.0011883 111.8959 0.9195232006723806
O 4.7566624 3.3809953 111.358955 0.9199165632551489
O 2.3720698 2.4185996 106.15058 0.9173155739194606
O 0.96353465 1.5512869 111.660484 0.9165848324355864
O 3.485924 5.1670966 111.59616 0.917471065270758
O 0.52949214 6.8803053 107.990555 0.9261934117535465
O 1.2676494 4.3220973 113.506546 0.9256382853967557
O 5.327223 0.7045229 109.75207 0.9259688360586693
O -0.51034033 5.562871 109.42438 0.9285292308811345
O -0.22828907 2.0225432 108.322365 0.9283402126127452
O 3.5805974 1.9611292 113.844444 0.9278178895949013
O 5.20336 0.60355955 116.87495 0.9195439018703044
O 4.933645 6.0532436 117.11018 0.9166491376895564
O 4.6304617 3.283012 115.266266 0.9258829679217948
O 2.3173554 5.643763 114.9264 0.9278239726502779
O 1.1419356 4.222667 117.40794 0.9199337329850302
O 0.73503447 7.019227 122.92 0.9195238251186252
O 4.79753 3.3990269 122.38306 0.9199169619009536
O 2.4129357 2.4366384 117.17468 0.9172962796319697
O 1.004402 1.5693185 122.68458 0.9165853886756943
O 3.52679 5.1851354 122.62026 0.9174705734240214
O 0.5703596 6.898337 119.014656 0.9261695857825564
O 1.3085153 4.340136 124.53065 0.9256323709503378
O 5.3680887 0.7225616 120.77616 0.9260022727403131
O -0.4694678 5.5809097 120.44848 0.9285303649670209
O -0.18742162 2.0405748 119.346466 0.928316381558068
O 3.621465 1.9791607 124.868546 0.9278186394387633
O 5.244226 0.6215983 127.89905 0.9195603480220409
O 4.9745107 6.0712824 128.13428 0.9166682146494195
O 4.6713343 3.3010507 126.29036 0.9259087066300943
O 2.358228 5.661802 125.95049 0.9278290741303844
O 1.182808 4.240706 128.43402 0.9199462943524638
O 0.775907 7.0372653 133.94606 0.91961397160192
O 4.838409 3.4170654 133.40912 0.9199525112782703
O 2.4538147 2.454677 128.20074 0.9173162538626237
O 1.0452731 1.5873644 133.71065 0.9167035755066689
O 3.567669 5.203174 133.64633 0.9174448156518947
O 0.6112321 6.9163756 130.04073 0.9261881624228707
O 1.3493944 4.358175 135.55672 0.9249156629849824
O 5.408968 0.74060035 131.80241 0.9259851364780393
O -0.42859527 5.5989485 131.47455 0.9285364001510099
O -0.1465491 2.0586135 130.37253 0.9283350586012044
O 3.6623425 1.9972066 135.89462 0.9278282090562789
O 5.2850986 0.639637 138.92511 0.9449891001001631
O 5.0153832 6.089321 139.16035 0.9452460720153706
O 4.712207 3.3190894 137.31644 0.9372972826773457
O 2.3991005 5.6798406 136.97656 0.9266696515705525
lattice_vector 6.59576 0.0 0.0 
lattice_vector -1.545044 7.232849 0.0 
lattice_vector 0.0 0.0 179.160425 
