336

H 3.4398866 5.5797305 42.451324 0.7873362949034974
H 4.468875 5.4111257 47.9755 0.8207356071233157
H 1.9266098 1.7891537 42.99432 0.8204780703253294
H 4.362726 2.847587 40.546974 0.7228461109066686
H 5.0806704 0.90591437 46.067055 0.8249716857006264
H 1.0053191 4.5223823 44.898674 0.8254831764643235
H 2.2269418 6.0027947 41.22261 0.7359242054796822
H -0.91947496 4.9860587 46.742695 0.8228901696936397
H 3.1407359 1.3669506 44.218945 0.8231724285368298
H 4.791986 4.0175076 41.833973 0.7806935399488889
H 3.1144688 6.975316 47.364136 0.814022097010023
H 0.5746531 3.351666 43.613716 0.8137207571980847
H 0.93879396 1.9771717 48.49629 0.8207252978123802
H 0.32608116 6.482014 50.402687 0.8251117327350235
H -0.26871297 2.4023836 49.72909 0.8229622705500569
H 2.2930682 0.4129812 49.10765 0.813988077690939
H 3.480754 5.597762 53.47542 0.8206519507534328
H 4.5097475 5.4291644 58.99959 0.8207340373101278
H 1.9674758 1.8071924 54.018417 0.8204029564727938
H 4.403594 2.8656187 51.571068 0.8254505611330907
H 5.1215367 0.92395306 57.09115 0.8249241370440681
H 1.046185 4.540421 55.922768 0.8253425334637163
H 2.2678094 6.020826 52.246708 0.82351162275564
H -0.87860906 5.004097 57.76679 0.8228383970135037
H 3.1816018 1.3849894 55.24304 0.8232964829737504
H 4.832852 4.0355463 52.85807 0.8142358036590023
H 3.155343 6.9933476 58.388233 0.8140112289179529
H 0.615519 3.3697047 54.637814 0.8141463474223413
H 0.9796599 1.9952103 59.520382 0.8206709342369829
H 0.36694705 6.500053 61.42678 0.8250241257021177
H -0.22784552 2.4204152 60.75304 0.8228865838463579
H 2.333934 0.43101993 60.131744 0.813944097796628
H 3.5216331 5.615801 64.501564 0.8206007247944068
H 4.55062 5.447203 70.02559 0.8207360051041239
H 2.0083482 1.8252312 65.044556 0.8204027022072773
H 4.4444647 2.8836646 62.59721 0.8253549010188314
H 5.162409 0.9419918 68.11729 0.8249253711865743
H 1.0870641 4.5584598 66.948906 0.8253523714286944
H 2.3086884 6.0388646 63.272846 0.8234333029465941
H -0.83772993 5.0221357 68.79293 0.8228402673223019
H 3.222481 1.403028 66.26918 0.8232941453390032
H 4.873731 4.053585 63.88421 0.8141939835140772
H 3.196214 7.0113935 69.414375 0.8140083837571751
H 0.6563915 3.3877435 65.6638 0.8141497503592517
H 1.0205324 2.0132492 70.546524 0.8207198265812697
H 0.40782616 6.5180917 72.45292 0.825120989808822
H -0.18696795 2.438461 71.77918 0.8229622926601018
H 2.3748064 0.44905865 71.15774 0.8139877148852024
H 3.562499 5.6338396 75.52566 0.8206552501751329
H 4.591486 5.465242 81.04968 0.8207351990924873
H 2.0492208 1.8432698 76.068504 0.8204070890411859
H 4.485332 2.901696 73.6213 0.8254505862581418
H 5.2032747 0.9600305 79.14139 0.8249269289397376
H 1.12793 4.5764985 77.97301 0.825361699857638
H 2.3495543 6.0569034 74.29694 0.8235034400290232
H -0.79686403 5.0401745 79.817024 0.8228434531787714
H 3.263347 1.4210668 77.293274 0.8233047461005305
H 4.9145985 4.0716166 74.9083 0.8142358870741718
H 3.2370813 7.029425 80.438324 0.8140027828808012
H 0.697264 3.4057822 76.687904 0.8141552346553887
H 1.0614065 2.0312805 81.57062 0.820667049904095
H 0.44869208 6.5361304 83.47702 0.8250240493219625
H -0.1461005 2.4564924 82.803276 0.8228878230138744
H 2.4156725 0.4670974 82.18183 0.8139436445407076
H 3.6033716 5.6518784 86.55165 0.8206005961541456
H 4.6323647 5.4832807 92.07582 0.8207341468553503
H 2.0900931 1.8613086 87.09464 0.820398907319571
H 4.5262113 2.9197347 84.6473 0.825359737088652
H 5.244154 0.97806925 90.16738 0.8249285238779765
H 1.1688025 4.5945373 88.999 0.8253492227573005
H 2.3904269 6.074942 85.32308 0.8234303311555593
H -0.7559915 5.058213 90.84316 0.822836950815567
H 3.3042195 1.4391055 88.31927 0.8232926931110541
H 4.955471 4.0896554 85.934296 0.8141937513586057
H 3.2779605 7.047464 91.46446 0.8140074903103607
H 0.73813653 3.423821 87.71404 0.8141492337882028
H 1.102279 2.0493193 92.59661 0.8207243551204659
H 0.4895646 6.554169 94.50301 0.82510496002627
H -0.10522799 2.4745312 93.829414 0.8229677407761654
H 2.4565516 0.48513612 93.20798 0.8139840828078265
H 3.6442375 5.669917 97.575745 0.8206574571596148
H 4.6732326 5.5013123 103.099915 0.8209255484890345
H 2.1309593 1.8793473 98.118744 0.8203955224726973
H 4.567077 2.9377735 95.671394 0.8254587890847994
H 5.28502 0.99610794 101.191475 0.8250779204463601
H 1.20967 4.612569 100.023094 0.825385252080466
H 2.4312994 6.092981 96.34703 0.8235055334482745
H -0.71511745 5.076245 101.86711 0.822709786902332
H 3.3450854 1.4571443 99.34336 0.8233460396243863
H 4.9963436 4.107694 96.9584 0.8142371282516921
H 3.3188264 7.0655026 102.488556 0.8135937952902599
H 0.7790024 3.4418597 98.73814 0.8141588808027933
H 1.1431448 2.067358 103.620705 0.7881389387784464
H 0.53043866 6.572201 105.52711 0.7233023567081783
H -0.06436208 2.49257 104.853516 0.7364873171682071
H 2.4974189 0.5031676 104.23207 0.781135489596367
C 2.5119095 5.2525887 41.966766 0.8476807730610892
C -1.2011416 5.7379785 47.486847 0.8700925221423123
C 2.8550498 2.1165051 43.474937 0.8696884635303083
C 4.0530686 3.2794316 41.50426 0.8457545977757146
C 5.396676 0.47850358 47.024345 0.8689448356449428
C 1.3139881 4.0898867 43.941532 0.8690514799613732
C 0.012903134 1.6503915 48.98494 0.8701331243318289
C 0.010590333 6.909794 49.445545 0.868909536576616
C 2.5527754 5.2706275 52.99086 0.8702915928224952
C -1.1602741 5.7560096 58.51094 0.8700812934413811
C 2.8959224 2.134544 54.49903 0.8701150499300788
C 4.093941 3.2974703 52.52821 0.8691104829605553
C 5.4375486 0.4965423 58.048294 0.8689247025898149
C 1.3548622 4.1079183 54.965626 0.8690810232358045
C 0.05376905 1.6684302 60.009037 0.8701018842735357
C 0.05145779 6.9278255 60.469494 0.8688841944272695
C 2.593648 5.2886662 64.01685 0.8702599207774302
C -1.1194016 5.7740483 69.536934 0.8700819239593867
C 2.936795 2.1525826 65.52517 0.8701117845076844
C 4.1348133 3.315509 63.55435 0.8690806167706393
C 5.478421 0.514581 69.07443 0.8689230842513118
C 1.3957347 4.125957 65.99162 0.8690876537491831
C 0.09464815 1.686469 71.03518 0.8701304037285721
C 0.0923303 6.945864 71.495636 0.8689169053360447
C 2.634522 5.306698 75.04095 0.8702893493389562
C -1.0785291 5.792087 80.56103 0.8700803714397637
C 2.977661 2.1706214 76.549126 0.8701194393777548
C 4.175679 3.3335478 74.578445 0.8691090051252126
C 5.5192885 0.53261256 80.098526 0.868920598984132
C 1.4366006 4.143996 77.01572 0.8690919669006879
C 0.13551407 1.7045077 82.05927 0.8701006742807373
C 0.13319622 6.963903 82.51973 0.8688863317946548
C 2.6753945 5.3247366 86.06709 0.8702582559627385
C -1.0376567 5.810126 91.58717 0.8700802809052227
C 3.01854 2.1886601 87.575264 0.8701118771914135
C 4.2165585 3.3515866 85.60458 0.8690845105618514
C 5.560168 0.55065125 91.12467 0.8689269361333595
C 1.4774797 4.1620345 88.041855 0.8690848713567735
C 0.17638658 1.7225463 93.085266 0.8701342150446979
C 0.17407532 6.9819417 93.54587 0.8689082156319914
C 2.7162604 5.3427753 97.09119 0.8702921747151241
C -0.9967907 5.8281646 102.61127 0.8696581027585223
C 3.0594075 2.2066915 98.59936 0.8701185523004413
C 4.2574244 3.3696253 96.628685 0.8691150352092162
C 5.6010337 0.56869 102.148766 0.8689025404326428
C 1.5183456 4.1800733 99.06595 0.8690986417410672
C 0.21725908 1.7405851 104.10936 0.8479914516072015
C 0.21494123 6.99998 104.56996 0.8458689885713505
N 2.7936316 3.9597244 41.35131 0.876254937152606
N -1.486505 7.028745 46.86745 0.8898461798955637
N 2.5737174 3.4097385 44.09229 0.8899384103708617
N 1.427732 5.183515 42.93998 0.8954268280085765
N 3.9386826 2.1850727 42.503624 0.890636224489335
N 5.5194154 1.5777881 48.017715 0.8952460929971797
N 1.8679186 3.422736 40.454502 0.8900682878551984
N 0.9809572 0.33240727 45.96655 0.8865126553106903
N 3.4994173 3.94651 44.989246 0.8870864865725833
N 0.24821025 5.839998 42.648396 0.8937504290408644
N 1.0646135 5.149962 48.158398 0.8928621294601113
N 5.118305 1.5287349 42.795208 0.8866597737842763
N 0.29801816 0.35955215 49.604336 0.8897824167216337
N -0.111764446 5.810871 48.452026 0.8951658810242223
N 4.426127 7.0558176 50.503193 0.8864744311151115
N 4.3429213 2.2386246 48.311348 0.8929656971405939
N 2.8345058 3.977756 52.37541 0.8899789511124194
N -1.4456391 7.046784 57.891544 0.8898240786022641
N 2.6145847 3.4277701 55.116386 0.8899553549670228
N 1.4686044 5.201554 53.964073 0.8952330761181211
N 3.9795485 2.2031114 53.527718 0.8951527647822635
N 5.5602894 1.5958196 59.041813 0.8952464762056348
N 1.9087845 3.4407747 51.478596 0.8869423262647963
N 1.0218247 0.35043877 56.990643 0.8864830990868897
N 3.5402849 3.9645414 56.01334 0.8869679198418743
N 0.28907618 5.8580365 53.67249 0.8930873003744056
N 1.1054809 5.1679935 59.18249 0.8928426302539578
N 5.159178 1.5467737 53.8193 0.8929329721559054
N 0.33888564 0.37758365 60.628433 0.8897693137054532
N -0.07089853 5.8289094 59.47612 0.895154248443317
N 4.466993 7.0738564 61.527287 0.8864714373414472
N 4.383787 2.2566633 59.33544 0.8929713665909927
N 2.8753767 3.995802 63.401546 0.8899654072369544
N -1.40476 7.0648227 68.91754 0.8898244204377709
N 2.6554623 3.445816 66.142525 0.8899518175799485
N 1.5094769 5.2195926 64.99021 0.8952338208311893
N 4.0204277 2.2211502 64.553856 0.89514265859185
N 5.601162 1.6138583 70.0678 0.8952445045472655
N 1.949657 3.4588134 62.50459 0.8869353427146073
N 1.0626972 0.3684775 68.01664 0.8864765262140804
N 3.5811572 3.9825802 67.03934 0.8869739836917714
N 0.32995528 5.876075 64.69863 0.8930888365994509
N 1.14636 5.1860323 70.20863 0.8928583455309601
N 5.2000504 1.5648124 64.84544 0.8929219265960936
N 0.37976474 0.39562237 71.65457 0.8897834836011022
N -0.030026028 5.846948 70.50226 0.8951669984329473
N 4.507872 7.091895 72.55343 0.8864742744405042
N 4.424666 2.274702 70.361435 0.8929716175416623
N 2.916244 4.0138335 74.425644 0.8899798185878423
N -1.3638941 7.0828614 79.941635 0.8898232755601213
N 2.6963298 3.4638476 77.16662 0.8899567630037529
N 1.5503429 5.2376313 76.014305 0.8952349633349813
N 4.0612936 2.239189 75.57796 0.8951488082397463
N 5.642028 1.6318971 81.0919 0.8952435865425862
N 1.9905311 3.476845 73.52869 0.8869379671838401
N 1.1035697 0.3865162 79.04073 0.8864803199777849
N 3.6220298 4.000619 78.06343 0.8869771985733229
N 0.37082118 5.8941135 75.722725 0.8930874319539459
N 1.1872259 5.204071 81.23273 0.8928497636963036
N 5.2409163 1.5828512 75.86954 0.8929349912914284
N 0.42063063 0.4136611 82.678665 0.8897683529713355
N 0.01084143 5.8649797 81.52635 0.8951581100315268
N 4.5487394 7.1099267 83.57752 0.8864699733495001
N 4.465532 2.2927408 81.38553 0.8929667667330428
N 2.9571233 4.0318723 85.45178 0.889967113701508
N -1.3230215 7.1009 90.96777 0.8898253974497699
N 2.7372022 3.4818864 88.19261 0.8899553929487458
N 1.5912219 5.25567 87.0403 0.8952330717095283
N 4.102166 2.2572274 86.60395 0.8951407930788314
N 5.682907 1.6499358 92.11804 0.8952431931604553
N 2.0314035 3.4948838 84.554825 0.8869352192740075
N 1.1444422 0.40455493 90.06687 0.8864801582163396
N 3.6629024 4.0186577 89.08957 0.8869731636935021
N 0.4116937 5.9121523 86.74872 0.8930855888230141
N 1.2280984 5.22211 92.258865 0.892863141062608
N 5.2817955 1.6008899 86.89553 0.89291709003062
N 0.46150315 0.4316998 93.70466 0.8897823472015156
N 0.051720534 5.8830185 92.55235 0.8951640294152275
N 4.589612 7.1279655 94.603516 0.8864762857762091
N 4.5064044 2.3107796 92.41167 0.8929647038507137
N 2.9979892 4.049911 96.47573 0.8899810078905429
N -1.2821556 7.118939 101.99187 0.8898066938250635
N 2.778068 3.499925 99.216705 0.8899739029344893
N 1.6320894 5.2737017 98.0644 0.8952360373360229
N 4.143032 2.2752662 97.628044 0.8951484480916231
N 5.723773 1.6679746 103.142136 0.8954701417550338
N 2.0722694 3.5129225 95.57892 0.8869406784684398
N 1.1853081 0.42259368 101.090965 0.8865992034489336
N 3.7037683 4.0366964 100.11366 0.8870051914422762
N 0.45256114 5.930184 97.77281 0.893081172430351
N 1.2689643 5.2401485 103.28296 0.8865856588952236
N 5.3226614 1.6189286 97.919624 0.8929309177516397
N 0.50237566 0.44973856 104.72876 0.8762076248124384
N 0.09258645 5.9010572 103.57645 0.8907101535392432
N 4.630478 7.146004 105.62761 0.8899860550511053
N 4.547272 2.328811 103.43577 0.8936426769275267
O 0.85583967 4.0964036 40.23333 0.9449154709402255
O 0.44893858 6.892963 45.745377 0.9195686386685847
O 4.5114408 3.272763 45.208374 0.9199916582115628
O 2.1268399 2.3103745 40.000034 0.9452666829778466
O 0.7183062 1.4430547 45.510036 0.9165681515869576
O 3.2407005 5.0588717 45.445614 0.9175670245267267
O 0.2842637 6.7720733 41.839966 0.9373736616884185
O 1.022426 4.2138724 47.356102 0.9256172296116497
O 5.0819926 0.59629774 43.601593 0.925285893096423
O -0.75556374 5.4546456 43.27378 0.9285610454429206
O 6.1222425 1.9143109 42.171867 0.9271764481604028
O 3.3353689 1.8528968 47.693993 0.9278255130075
O 4.95813 0.49533442 50.72451 0.919543540081232
O 4.6884146 5.945019 50.959705 0.9166443386888385
O 4.385238 3.1747868 49.115685 0.9258654474174965
O 2.072132 5.535538 48.775894 0.9278386115512144
O 0.8967071 4.114435 51.257427 0.9199428378688076
O 0.48980603 6.9109945 56.769325 0.9195362017787571
O 4.5523067 3.2908015 56.232468 0.9199045682951977
O 2.1677058 2.3284132 51.024128 0.9173163508763211
O 0.7591721 1.4610933 56.53413 0.9165965240688678
O 3.2815664 5.0769105 56.469707 0.9174518345293571
O 0.3251296 6.790112 52.86406 0.9261835976954046
O 1.0632919 4.231911 58.380196 0.9256164467238206
O 5.1228666 0.6143293 54.625687 0.9259934559321439
O -0.7146962 5.472677 54.297874 0.9285208563537517
O 6.1631083 1.9323497 53.19596 0.9283251106726329
O 3.376235 1.8709356 58.717945 0.9278311821660105
O 4.9989963 0.51337314 61.74846 0.9195532189980224
O 4.7292805 5.963057 61.9838 0.9166656613675227
O 4.426104 3.1928256 60.139782 0.9258878694435381
O 2.112998 5.553577 59.799843 0.9278257362660962
O 0.9375781 4.132481 62.28342 0.9199495347794139
O 0.5306786 6.9290333 67.79546 0.9195309596499714
O 4.593179 3.3088403 67.258606 0.9199131343081317
O 2.2085848 2.346452 62.05012 0.9173254430508804
O 0.8000512 1.479132 67.56027 0.9165835894740657
O 3.322439 5.0949492 67.49585 0.9174704234552489
O 0.36600873 6.808151 63.890198 0.926207422395473
O 1.1041644 4.24995 69.406334 0.9256210775392203
O 5.163738 0.63237524 65.651825 0.9259861307625277
O -0.6738238 5.490716 65.32401 0.928523517240361
O -0.3917725 1.9503883 64.221954 0.9283408709502378
O 3.417114 1.8889742 69.74409 0.9278154240066087
O 5.039875 0.5314119 72.7746 0.9195408025156742
O 4.770153 5.981096 73.00994 0.9166478909152704
O 4.4669766 3.2108643 71.165924 0.9258889357469283
O 2.1538706 5.5716157 70.82598 0.9278248364534617
O 0.97844553 4.1505127 73.30752 0.9199354966008485
O 0.571551 6.947072 78.819565 0.9195303114798533
O 4.634045 3.326879 78.2827 0.9199165022509026
O 2.2494524 2.3644834 73.07422 0.917306461833793
O 0.8409171 1.4971708 78.58422 0.9165954056576836
O 3.3633065 5.1129804 78.51994 0.9174727043362397
O 0.40687463 6.8261895 74.91429 0.9261829452888806
O 1.1450318 4.267981 80.43028 0.9256342269198068
O 5.204605 0.6504067 76.67593 0.9259925446812131
O -0.63295126 5.5087547 76.34811 0.9285242764043162
O -0.3509066 1.9684271 75.24605 0.9283340308491085
O 3.45798 1.9070129 80.76818 0.9278153935044855
O 5.0807424 0.54944336 83.79869 0.9195554028653159
O 4.8110256 5.9991345 84.034035 0.9166627399419445
O 4.507844 3.2288957 82.18987 0.9258947408940715
O 2.1947365 5.589654 81.850075 0.9278264094310098
O 1.0193247 4.1685514 84.33366 0.9199491047842049
O 0.61242354 6.965111 89.8457 0.9195282411482406
O 4.674924 3.3449178 89.30869 0.9199087436969523
O 2.2903233 2.3825295 84.10036 0.9173242979503383
O 0.8817896 1.5152096 89.61036 0.9165932374650924
O 3.4041855 5.131019 89.54608 0.9174664120024064
O 0.44774714 6.844228 85.94044 0.9261807182102457
O 1.1859094 4.2860274 91.45643 0.9256373758403874
O 5.2454844 0.66844547 87.70192 0.9259947179574916
O -0.59207875 5.5267935 87.37425 0.9285402146109731
O -0.3100341 1.9864658 86.272194 0.9283225972129525
O 3.4988525 1.9250517 91.79432 0.9278141310554971
O 5.121615 0.5674821 94.82484 0.9195498624935478
O 4.851898 6.0171733 95.06003 0.9166482086457204
O 4.548722 3.2469416 93.21601 0.9258740307996951
O 2.2356155 5.6076927 92.87622 0.9278250436137151
O 1.0601906 4.18659 95.35775 0.9199387416878453
O 0.6532895 6.9831495 100.8698 0.9196184291483143
O 4.7157917 3.3629494 100.332794 0.9199443032416433
O 2.3311973 2.4005609 95.12445 0.917311504427856
O 0.9226555 1.5332483 100.63445 0.9167103317269593
O 3.4450514 5.149058 100.570175 0.9174402572790378
O 0.4886146 6.8622594 96.96453 0.9261575882807616
O 1.2267768 4.3040586 102.48052 0.9249183916540876
O 5.2863503 0.68648416 98.72601 0.9259954716141192
O -0.5512128 5.544832 98.3982 0.9285335088039143
O -0.26916817 2.0045044 97.29629 0.9283217893303282
O 3.5397248 1.9430904 102.81841 0.9278249525309861
O 5.162481 0.5855208 105.84893 0.9449926913015302
O 4.8927655 6.035205 106.08412 0.9452456225326938
O 4.589589 3.2649732 104.240105 0.9372844929676287
O 2.276483 5.6257243 103.900314 0.9266685395139773
lattice_vector 6.59576 0.0 0.0 
lattice_vector -1.545044 7.232849 0.0 
lattice_vector 0.0 0.0 146.084159 
