56

H 3.4398866 5.5797305 42.451363 0.787341837489753
H 4.468875 5.4111257 47.975437 0.8209256700942813
H 1.9266098 1.7891537 42.9943 0.8204830169453745
H 4.362726 2.847587 40.546936 0.7228304660398982
H 5.0806704 0.90591437 46.0671 0.8251129789375541
H 1.0053191 4.5223823 44.898724 0.8255330496906024
H 2.2269418 6.0027947 41.222675 0.7359134911529243
H -0.91947496 4.9860587 46.742752 0.822755511480186
H 3.1407359 1.3669506 44.218983 0.8232301478140419
H 4.791986 4.0175076 41.83402 0.780697230316383
H 3.1144688 6.975316 47.364098 0.8136038382756544
H 0.5746531 3.351666 43.613735 0.8137330383230242
H 0.93879396 1.9771717 48.496273 0.7881407136120506
H 0.32608116 6.482014 50.4027 0.7233109474656237
H -0.26871297 2.4023836 49.72905 0.7364776570885901
H 2.2930682 0.4129812 49.107613 0.7811397015599204
C 2.5119095 5.2525887 41.96673 0.8476745089842508
C -1.2011416 5.7379785 47.4868 0.8696610307584135
C 2.8550498 2.1165051 43.47493 0.869699467103805
C 4.0530686 3.2794316 41.504196 0.8457511160912858
C 5.396676 0.47850358 47.02427 0.8689129124135397
C 1.3139881 4.0898867 43.941463 0.8690735604494044
C 0.012903134 1.6503915 48.985 0.8479875973073173
C 0.010590333 6.909794 49.44544 0.8458789645643734
N 2.7936316 3.9597244 41.351387 0.8762551087486045
N -1.486505 7.028745 46.867455 0.8898247914378149
N 2.5737174 3.4097385 44.092274 0.8899606476522944
N 1.427732 5.183515 42.94 0.8954295843964722
N 3.9386826 2.1850727 42.503662 0.8906382124255855
N 5.5194154 1.5777881 48.017735 0.8954729225597513
N 1.8679186 3.422736 40.45452 0.8900686812373292
N 0.9809572 0.33240727 45.9665 0.8866289685722105
N 3.4994173 3.94651 44.989227 0.8871230772149518
N 0.24821025 5.839998 42.64847 0.8937528473236012
N 1.0646135 5.149962 48.158447 0.8865812859102439
N 5.118305 1.5287349 42.79519 0.8866630876896057
N 0.29801816 0.35955215 49.604343 0.8762093587459167
N -0.111764446 5.810871 48.452065 0.8907093647402464
N 4.426127 7.0558176 50.50321 0.8899848165756384
N 4.3429213 2.2386246 48.31126 0.8936497483104502
O 0.85583967 4.0964036 40.233307 0.9449157958725659
O 0.44893858 6.892963 45.745285 0.9196582543302078
O 4.5114408 3.272763 45.20835 0.920028534431239
O 2.1268399 2.3103745 39.999996 0.9452684432045398
O 0.7183062 1.4430547 45.510063 0.9166765273252745
O 3.2407005 5.0588717 45.445663 0.9175516641658484
O 0.2842637 6.7720733 41.84002 0.93737629588567
O 1.022426 4.2138724 47.35609 0.9249031609272329
O 5.0819926 0.59629774 43.60164 0.9252932585118963
O -0.75556374 5.4546456 43.27382 0.9285688594937894
O 6.1222425 1.9143109 42.17184 0.9271809645928406
O 3.3353689 1.8528968 47.693916 0.9278351207526696
O 4.95813 0.49533442 50.724422 0.9449873559718126
O 4.6884146 5.945019 50.959736 0.9452477445484597
O 4.385238 3.1747868 49.115707 0.937300428632442
O 2.072132 5.535538 48.77579 0.9266723709195644
lattice_vector 6.59576 0.0 0.0 
lattice_vector -1.545044 7.232849 0.0 
lattice_vector 0.0 0.0 90.959731 
